*SPEF "ieee 1481-1999"
*DESIGN "Maximum_Path_Memory"
*DATE "17:59:32 Wednesday January 21, 2026"
*VENDOR "The OpenROAD Project"
*PROGRAM "OpenROAD"
*VERSION "edf00dff99f6c40d67a30c0e22a8191c5d2ed9d6"
*DESIGN_FLOW "NAME_SCOPE LOCAL" "PIN_CAP NONE"
*DIVIDER /
*DELIMITER :
*BUS_DELIMITER []
*T_UNIT 1 NS
*C_UNIT 1 PF
*R_UNIT 1 OHM
*L_UNIT 1 HENRY

*NAME_MAP
*3 prev_00[0]
*4 prev_00[1]
*5 prev_00[2]
*6 prev_00[3]
*7 prev_01[0]
*8 prev_01[1]
*9 prev_01[2]
*10 prev_01[3]
*11 prev_10[0]
*12 prev_10[1]
*13 prev_10[2]
*14 prev_10[3]
*15 prev_11[0]
*16 prev_11[1]
*17 prev_11[2]
*18 prev_11[3]
*19 winner_state[0]
*20 winner_state[1]
*21 _00_
*22 _01_
*23 _02_
*24 _03_
*25 _04_
*26 _05_
*27 _06_
*28 _07_
*29 _08_
*30 _09_
*31 _10_
*32 _11_
*33 _12_
*34 _13_
*35 _14_
*36 _15_
*37 _16_
*38 _17_
*39 _18_
*40 _19_
*41 _20_
*42 _21_
*43 _22_
*44 _23_
*45 _24_
*46 _25_
*47 _26_
*48 _27_
*49 _28_
*50 _29_
*51 _30_
*52 _31_
*53 _32_
*54 _33_
*55 _34_
*56 _35_
*57 _36_
*58 _37_
*59 _38_
*60 net1
*61 net10
*62 net11
*63 net12
*64 net13
*65 net14
*66 net15
*67 net16
*68 net17
*69 net18
*70 net2
*71 net3
*72 net4
*73 net5
*74 net6
*75 net7
*76 net8
*77 net9
*78 FILLER_0_109
*79 FILLER_0_113
*80 FILLER_0_125
*81 FILLER_0_137
*82 FILLER_0_141
*83 FILLER_0_15
*84 FILLER_0_153
*85 FILLER_0_165
*86 FILLER_0_169
*87 FILLER_0_181
*88 FILLER_0_189
*89 FILLER_0_27
*90 FILLER_0_29
*91 FILLER_0_3
*92 FILLER_0_41
*93 FILLER_0_53
*94 FILLER_0_57
*95 FILLER_0_69
*96 FILLER_0_81
*97 FILLER_0_85
*98 FILLER_0_97
*99 FILLER_10_103
*100 FILLER_10_109
*101 FILLER_10_121
*102 FILLER_10_133
*103 FILLER_10_139
*104 FILLER_10_141
*105 FILLER_10_15
*106 FILLER_10_153
*107 FILLER_10_165
*108 FILLER_10_177
*109 FILLER_10_189
*110 FILLER_10_27
*111 FILLER_10_29
*112 FILLER_10_3
*113 FILLER_10_41
*114 FILLER_10_53
*115 FILLER_10_65
*116 FILLER_10_77
*117 FILLER_10_83
*118 FILLER_10_85
*119 FILLER_10_91
*120 FILLER_11_105
*121 FILLER_11_111
*122 FILLER_11_138
*123 FILLER_11_15
*124 FILLER_11_152
*125 FILLER_11_164
*126 FILLER_11_169
*127 FILLER_11_175
*128 FILLER_11_185
*129 FILLER_11_189
*130 FILLER_11_27
*131 FILLER_11_3
*132 FILLER_11_39
*133 FILLER_11_51
*134 FILLER_11_55
*135 FILLER_11_57
*136 FILLER_11_65
*137 FILLER_11_77
*138 FILLER_11_81
*139 FILLER_11_98
*140 FILLER_12_101
*141 FILLER_12_112
*142 FILLER_12_15
*143 FILLER_12_160
*144 FILLER_12_172
*145 FILLER_12_184
*146 FILLER_12_27
*147 FILLER_12_29
*148 FILLER_12_3
*149 FILLER_12_41
*150 FILLER_12_53
*151 FILLER_12_59
*152 FILLER_12_80
*153 FILLER_13_101
*154 FILLER_13_106
*155 FILLER_13_113
*156 FILLER_13_128
*157 FILLER_13_138
*158 FILLER_13_15
*159 FILLER_13_150
*160 FILLER_13_154
*161 FILLER_13_158
*162 FILLER_13_166
*163 FILLER_13_172
*164 FILLER_13_180
*165 FILLER_13_184
*166 FILLER_13_23
*167 FILLER_13_29
*168 FILLER_13_37
*169 FILLER_13_41
*170 FILLER_13_49
*171 FILLER_13_54
*172 FILLER_13_57
*173 FILLER_13_6
*174 FILLER_13_63
*175 FILLER_13_76
*176 FILLER_13_80
*177 FILLER_13_85
*178 FILLER_1_105
*179 FILLER_1_111
*180 FILLER_1_113
*181 FILLER_1_125
*182 FILLER_1_137
*183 FILLER_1_149
*184 FILLER_1_15
*185 FILLER_1_161
*186 FILLER_1_167
*187 FILLER_1_169
*188 FILLER_1_181
*189 FILLER_1_185
*190 FILLER_1_27
*191 FILLER_1_3
*192 FILLER_1_39
*193 FILLER_1_51
*194 FILLER_1_55
*195 FILLER_1_57
*196 FILLER_1_69
*197 FILLER_1_81
*198 FILLER_1_93
*199 FILLER_2_109
*200 FILLER_2_121
*201 FILLER_2_133
*202 FILLER_2_139
*203 FILLER_2_141
*204 FILLER_2_15
*205 FILLER_2_153
*206 FILLER_2_165
*207 FILLER_2_177
*208 FILLER_2_189
*209 FILLER_2_27
*210 FILLER_2_29
*211 FILLER_2_3
*212 FILLER_2_41
*213 FILLER_2_53
*214 FILLER_2_65
*215 FILLER_2_77
*216 FILLER_2_83
*217 FILLER_2_85
*218 FILLER_2_97
*219 FILLER_3_105
*220 FILLER_3_111
*221 FILLER_3_113
*222 FILLER_3_125
*223 FILLER_3_137
*224 FILLER_3_149
*225 FILLER_3_15
*226 FILLER_3_161
*227 FILLER_3_167
*228 FILLER_3_169
*229 FILLER_3_181
*230 FILLER_3_189
*231 FILLER_3_27
*232 FILLER_3_3
*233 FILLER_3_39
*234 FILLER_3_51
*235 FILLER_3_55
*236 FILLER_3_57
*237 FILLER_3_69
*238 FILLER_3_81
*239 FILLER_3_93
*240 FILLER_4_109
*241 FILLER_4_121
*242 FILLER_4_133
*243 FILLER_4_139
*244 FILLER_4_141
*245 FILLER_4_15
*246 FILLER_4_153
*247 FILLER_4_165
*248 FILLER_4_177
*249 FILLER_4_189
*250 FILLER_4_27
*251 FILLER_4_29
*252 FILLER_4_3
*253 FILLER_4_41
*254 FILLER_4_53
*255 FILLER_4_65
*256 FILLER_4_77
*257 FILLER_4_83
*258 FILLER_4_85
*259 FILLER_4_97
*260 FILLER_5_105
*261 FILLER_5_111
*262 FILLER_5_113
*263 FILLER_5_125
*264 FILLER_5_137
*265 FILLER_5_149
*266 FILLER_5_15
*267 FILLER_5_161
*268 FILLER_5_167
*269 FILLER_5_169
*270 FILLER_5_181
*271 FILLER_5_189
*272 FILLER_5_27
*273 FILLER_5_3
*274 FILLER_5_39
*275 FILLER_5_51
*276 FILLER_5_55
*277 FILLER_5_57
*278 FILLER_5_69
*279 FILLER_5_81
*280 FILLER_5_93
*281 FILLER_6_109
*282 FILLER_6_121
*283 FILLER_6_133
*284 FILLER_6_139
*285 FILLER_6_141
*286 FILLER_6_15
*287 FILLER_6_153
*288 FILLER_6_165
*289 FILLER_6_177
*290 FILLER_6_189
*291 FILLER_6_27
*292 FILLER_6_29
*293 FILLER_6_3
*294 FILLER_6_41
*295 FILLER_6_53
*296 FILLER_6_65
*297 FILLER_6_77
*298 FILLER_6_83
*299 FILLER_6_85
*300 FILLER_6_97
*301 FILLER_7_105
*302 FILLER_7_111
*303 FILLER_7_113
*304 FILLER_7_125
*305 FILLER_7_137
*306 FILLER_7_149
*307 FILLER_7_15
*308 FILLER_7_161
*309 FILLER_7_167
*310 FILLER_7_169
*311 FILLER_7_181
*312 FILLER_7_189
*313 FILLER_7_27
*314 FILLER_7_3
*315 FILLER_7_39
*316 FILLER_7_51
*317 FILLER_7_55
*318 FILLER_7_57
*319 FILLER_7_69
*320 FILLER_7_81
*321 FILLER_7_93
*322 FILLER_8_109
*323 FILLER_8_121
*324 FILLER_8_133
*325 FILLER_8_139
*326 FILLER_8_141
*327 FILLER_8_15
*328 FILLER_8_153
*329 FILLER_8_165
*330 FILLER_8_177
*331 FILLER_8_189
*332 FILLER_8_27
*333 FILLER_8_29
*334 FILLER_8_3
*335 FILLER_8_41
*336 FILLER_8_53
*337 FILLER_8_65
*338 FILLER_8_77
*339 FILLER_8_83
*340 FILLER_8_85
*341 FILLER_8_97
*342 FILLER_9_105
*343 FILLER_9_111
*344 FILLER_9_113
*345 FILLER_9_125
*346 FILLER_9_137
*347 FILLER_9_149
*348 FILLER_9_15
*349 FILLER_9_161
*350 FILLER_9_167
*351 FILLER_9_169
*352 FILLER_9_181
*353 FILLER_9_189
*354 FILLER_9_27
*355 FILLER_9_3
*356 FILLER_9_39
*357 FILLER_9_51
*358 FILLER_9_55
*359 FILLER_9_57
*360 FILLER_9_69
*361 FILLER_9_81
*362 FILLER_9_93
*363 PHY_EDGE_ROW_0_Left_14
*364 PHY_EDGE_ROW_0_Right_0
*365 PHY_EDGE_ROW_10_Left_24
*366 PHY_EDGE_ROW_10_Right_10
*367 PHY_EDGE_ROW_11_Left_25
*368 PHY_EDGE_ROW_11_Right_11
*369 PHY_EDGE_ROW_12_Left_26
*370 PHY_EDGE_ROW_12_Right_12
*371 PHY_EDGE_ROW_13_Left_27
*372 PHY_EDGE_ROW_13_Right_13
*373 PHY_EDGE_ROW_1_Left_15
*374 PHY_EDGE_ROW_1_Right_1
*375 PHY_EDGE_ROW_2_Left_16
*376 PHY_EDGE_ROW_2_Right_2
*377 PHY_EDGE_ROW_3_Left_17
*378 PHY_EDGE_ROW_3_Right_3
*379 PHY_EDGE_ROW_4_Left_18
*380 PHY_EDGE_ROW_4_Right_4
*381 PHY_EDGE_ROW_5_Left_19
*382 PHY_EDGE_ROW_5_Right_5
*383 PHY_EDGE_ROW_6_Left_20
*384 PHY_EDGE_ROW_6_Right_6
*385 PHY_EDGE_ROW_7_Left_21
*386 PHY_EDGE_ROW_7_Right_7
*387 PHY_EDGE_ROW_8_Left_22
*388 PHY_EDGE_ROW_8_Right_8
*389 PHY_EDGE_ROW_9_Left_23
*390 PHY_EDGE_ROW_9_Right_9
*391 TAP_TAPCELL_ROW_0_28
*392 TAP_TAPCELL_ROW_0_29
*393 TAP_TAPCELL_ROW_0_30
*394 TAP_TAPCELL_ROW_0_31
*395 TAP_TAPCELL_ROW_0_32
*396 TAP_TAPCELL_ROW_0_33
*397 TAP_TAPCELL_ROW_10_61
*398 TAP_TAPCELL_ROW_10_62
*399 TAP_TAPCELL_ROW_10_63
*400 TAP_TAPCELL_ROW_11_64
*401 TAP_TAPCELL_ROW_11_65
*402 TAP_TAPCELL_ROW_11_66
*403 TAP_TAPCELL_ROW_12_67
*404 TAP_TAPCELL_ROW_12_68
*405 TAP_TAPCELL_ROW_12_69
*406 TAP_TAPCELL_ROW_13_70
*407 TAP_TAPCELL_ROW_13_71
*408 TAP_TAPCELL_ROW_13_72
*409 TAP_TAPCELL_ROW_13_73
*410 TAP_TAPCELL_ROW_13_74
*411 TAP_TAPCELL_ROW_13_75
*412 TAP_TAPCELL_ROW_1_34
*413 TAP_TAPCELL_ROW_1_35
*414 TAP_TAPCELL_ROW_1_36
*415 TAP_TAPCELL_ROW_2_37
*416 TAP_TAPCELL_ROW_2_38
*417 TAP_TAPCELL_ROW_2_39
*418 TAP_TAPCELL_ROW_3_40
*419 TAP_TAPCELL_ROW_3_41
*420 TAP_TAPCELL_ROW_3_42
*421 TAP_TAPCELL_ROW_4_43
*422 TAP_TAPCELL_ROW_4_44
*423 TAP_TAPCELL_ROW_4_45
*424 TAP_TAPCELL_ROW_5_46
*425 TAP_TAPCELL_ROW_5_47
*426 TAP_TAPCELL_ROW_5_48
*427 TAP_TAPCELL_ROW_6_49
*428 TAP_TAPCELL_ROW_6_50
*429 TAP_TAPCELL_ROW_6_51
*430 TAP_TAPCELL_ROW_7_52
*431 TAP_TAPCELL_ROW_7_53
*432 TAP_TAPCELL_ROW_7_54
*433 TAP_TAPCELL_ROW_8_55
*434 TAP_TAPCELL_ROW_8_56
*435 TAP_TAPCELL_ROW_8_57
*436 TAP_TAPCELL_ROW_9_58
*437 TAP_TAPCELL_ROW_9_59
*438 TAP_TAPCELL_ROW_9_60
*439 _39_
*440 _40_
*441 _41_
*442 _42_
*443 _43_
*444 _44_
*445 _45_
*446 _46_
*447 _47_
*448 _48_
*449 _49_
*450 _50_
*451 _51_
*452 _52_
*453 _53_
*454 _54_
*455 _55_
*456 _56_
*457 _57_
*458 _58_
*459 _59_
*460 _60_
*461 _61_
*462 _62_
*463 _63_
*464 _64_
*465 _65_
*466 _66_
*467 _67_
*468 _68_
*469 _69_
*470 _70_
*471 _71_
*472 _72_
*473 _73_
*474 _74_
*475 _75_
*476 _76_
*477 _77_
*478 _78_
*479 _79_
*480 input1
*481 input10
*482 input11
*483 input12
*484 input13
*485 input14
*486 input15
*487 input16
*488 input2
*489 input3
*490 input4
*491 input5
*492 input6
*493 input7
*494 input8
*495 input9
*496 output17
*497 output18

*PORTS
prev_00[0] I
prev_00[1] I
prev_00[2] I
prev_00[3] I
prev_01[0] I
prev_01[1] I
prev_01[2] I
prev_01[3] I
prev_10[0] I
prev_10[1] I
prev_10[2] I
prev_10[3] I
prev_11[0] I
prev_11[1] I
prev_11[2] I
prev_11[3] I
winner_state[0] O
winner_state[1] O

*D_NET *3 0.000941007
*CONN
*P prev_00[0] I
*I *480:A I *D sky130_fd_sc_hd__buf_1
*CAP
1 prev_00[0] 0.000470503
2 *480:A 0.000470503
*RES
1 prev_00[0] *480:A 11.73 
*END

*D_NET *4 0.000789939
*CONN
*P prev_00[1] I
*I *488:A I *D sky130_fd_sc_hd__buf_1
*CAP
1 prev_00[1] 0.00037995
2 *488:A 0.00037995
3 *488:A *60:12 3.00381e-05
*RES
1 prev_00[1] *488:A 10.35 
*END

*D_NET *5 0.000789939
*CONN
*P prev_00[2] I
*I *489:A I *D sky130_fd_sc_hd__clkbuf_1
*CAP
1 prev_00[2] 0.00037995
2 *489:A 0.00037995
3 *489:A *60:12 3.00381e-05
*RES
1 prev_00[2] *489:A 10.35 
*END

*D_NET *6 0.00083158
*CONN
*P prev_00[3] I
*I *490:A I *D sky130_fd_sc_hd__buf_1
*CAP
1 prev_00[3] 0.000401105
2 *490:A 0.000401105
3 *490:A *60:12 2.937e-05
*RES
1 prev_00[3] *490:A 10.35 
*END

*D_NET *7 0.00082652
*CONN
*P prev_01[0] I
*I *491:A I *D sky130_fd_sc_hd__clkbuf_1
*CAP
1 prev_01[0] 0.000374095
2 *491:A 0.000374095
3 *491:A *60:12 3.00381e-05
4 *491:A *72:16 4.82919e-05
*RES
1 prev_01[0] *491:A 10.35 
*END

*D_NET *8 0.00152829
*CONN
*P prev_01[1] I
*I *492:A I *D sky130_fd_sc_hd__clkbuf_1
*CAP
1 prev_01[1] 0.000461645
2 *492:A 0.000461645
3 *492:A *446:B 1.12643e-05
4 *492:A *447:A2 8.4546e-05
5 *492:A *454:A1 5.66635e-05
6 *492:A *72:16 0.000402563
7 *492:A *73:8 4.99619e-05
*RES
1 prev_01[1] *492:A 13.56 
*END

*D_NET *9 0.000820399
*CONN
*P prev_01[2] I
*I *493:A I *D sky130_fd_sc_hd__clkbuf_1
*CAP
1 prev_01[2] 0.000371035
2 *493:A 0.000371035
3 *493:A *471:A1 0
4 *493:A *53:18 3.00381e-05
5 *493:A *72:16 4.82919e-05
*RES
1 prev_01[2] *493:A 10.35 
*END

*D_NET *10 0.00152008
*CONN
*P prev_01[3] I
*I *494:A I *D sky130_fd_sc_hd__buf_1
*CAP
1 prev_01[3] 0.000580156
2 *494:A 0.000580156
3 *494:A *449:A 0.000211491
4 *494:A *451:A2 8.96017e-05
5 *494:A *452:A2 2.75145e-05
6 *494:A *72:20 4.43871e-06
7 *494:A *76:12 2.67184e-05
*RES
1 prev_01[3] *494:A 14.01 
*END

*D_NET *11 0.000788169
*CONN
*P prev_10[0] I
*I *495:A I *D sky130_fd_sc_hd__clkbuf_1
*CAP
1 prev_10[0] 0.000394084
2 *495:A 0.000394084
*RES
1 prev_10[0] *495:A 10.35 
*END

*D_NET *12 0.00158296
*CONN
*P prev_10[1] I
*I *481:A I *D sky130_fd_sc_hd__clkbuf_1
*CAP
1 prev_10[1] 0.000580068
2 *481:A 0.000580068
3 *481:A *439:A 0
4 *481:A *456:A_N 0.000135153
5 *481:A *456:B 2.83656e-05
6 *481:A *458:A1 4.92062e-05
7 *481:A *464:B1 4.47209e-05
8 *481:A *61:10 0.000120655
9 *481:A *65:16 4.47209e-05
10 *481:A *65:37 0
11 *481:A *67:34 0
*RES
1 prev_10[1] *481:A 15.24 
*END

*D_NET *13 0.000822355
*CONN
*P prev_10[2] I
*I *482:A I *D sky130_fd_sc_hd__buf_1
*CAP
1 prev_10[2] 0.000370619
2 *482:A 0.000370619
3 *482:A *464:B1 1.47256e-05
4 *482:A *65:16 4.82919e-05
5 *482:A *65:37 1.22676e-05
6 *482:A *67:34 5.83121e-06
*RES
1 prev_10[2] *482:A 10.35 
*END

*D_NET *14 0.00123311
*CONN
*P prev_10[3] I
*I *483:A I *D sky130_fd_sc_hd__buf_1
*CAP
1 prev_10[3] 0.000543261
2 *483:A 0.000543261
3 *483:A *462:B1 0.000124895
4 *483:A *484:A 0
5 *483:A *65:16 2.16917e-05
*RES
1 prev_10[3] *483:A 14.31 
*END

*D_NET *15 0.000943829
*CONN
*P prev_11[0] I
*I *484:A I *D sky130_fd_sc_hd__clkbuf_1
*CAP
1 prev_11[0] 0.000408629
2 *484:A 0.000408629
3 *484:A *65:16 0.00012657
4 *483:A *484:A 0
*RES
1 prev_11[0] *484:A 11.04 
*END

*D_NET *16 0.000965595
*CONN
*P prev_11[1] I
*I *485:A I *D sky130_fd_sc_hd__buf_1
*CAP
1 prev_11[1] 0.000438664
2 *485:A 0.000438664
3 *485:A *65:16 8.8266e-05
*RES
1 prev_11[1] *485:A 11.385 
*END

*D_NET *17 0.000878087
*CONN
*P prev_11[2] I
*I *486:A I *D sky130_fd_sc_hd__buf_1
*CAP
1 prev_11[2] 0.000439044
2 *486:A 0.000439044
*RES
1 prev_11[2] *486:A 11.04 
*END

*D_NET *18 0.000901152
*CONN
*P prev_11[3] I
*I *487:A I *D sky130_fd_sc_hd__buf_1
*CAP
1 prev_11[3] 0.000450576
2 *487:A 0.000450576
*RES
1 prev_11[3] *487:A 11.385 
*END

*D_NET *19 0.000404253
*CONN
*P winner_state[0] O
*I *496:X O *D sky130_fd_sc_hd__buf_2
*CAP
1 winner_state[0] 0.000202127
2 *496:X 0.000202127
*RES
1 *496:X winner_state[0] 4.84677 
*END

*D_NET *20 0.000431286
*CONN
*P winner_state[1] O
*I *497:X O *D sky130_fd_sc_hd__buf_2
*CAP
1 winner_state[1] 0.000215643
2 *497:X 0.000215643
3 winner_state[1] *497:A 0
*RES
1 *497:X winner_state[1] 5.10177 
*END

*D_NET *21 0.00131121
*CONN
*I *464:A2 I *D sky130_fd_sc_hd__o221a_1
*I *439:Y O *D sky130_fd_sc_hd__inv_2
*CAP
1 *464:A2 0.000152573
2 *439:Y 0.000152573
3 *464:A2 *464:B1 0.000393802
4 *464:A2 *46:40 7.9642e-06
5 *464:A2 *62:12 0.000230786
6 *464:A2 *62:29 0.00028139
7 *464:A2 *63:29 9.21178e-05
*RES
1 *439:Y *464:A2 12.93 
*END

*D_NET *22 0.00048955
*CONN
*I *468:A0 I *D sky130_fd_sc_hd__mux2_1
*I *440:Y O *D sky130_fd_sc_hd__inv_2
*CAP
1 *468:A0 4.33874e-05
2 *440:Y 4.33874e-05
3 *468:A0 *463:C1 3.00381e-05
4 *468:A0 *479:A1 4.82919e-05
5 *468:A0 *23:12 0.000111285
6 *468:A0 *46:12 8.65905e-05
7 *468:A0 *46:40 0.00012657
*RES
1 *440:Y *468:A0 5.375 
*END

*D_NET *23 0.00174626
*CONN
*I *468:A1 I *D sky130_fd_sc_hd__mux2_1
*I *463:C1 I *D sky130_fd_sc_hd__a211o_1
*I *441:Y O *D sky130_fd_sc_hd__inv_2
*CAP
1 *468:A1 0
2 *463:C1 0.000246719
3 *441:Y 0.000400601
4 *23:12 0.00064732
5 *463:C1 *463:B1 9.50342e-06
6 *463:C1 *464:A1 0
7 *463:C1 *475:A 3.49165e-05
8 *463:C1 *477:B 1.23331e-05
9 *463:C1 *46:10 0
10 *463:C1 *46:40 8.09157e-05
11 *23:12 *440:A 0
12 *23:12 *479:A1 0.000172625
13 *468:A0 *463:C1 3.00381e-05
14 *468:A0 *23:12 0.000111285
*RES
1 *441:Y *23:12 11.06 
2 *23:12 *463:C1 9.155 
3 *23:12 *468:A1 1.6 
*END

*D_NET *24 0.000859206
*CONN
*I *453:A2 I *D sky130_fd_sc_hd__o221a_2
*I *442:Y O *D sky130_fd_sc_hd__inv_2
*CAP
1 *453:A2 0.000102291
2 *442:Y 0.000102291
3 *453:A2 *448:B 0.000113797
4 *453:A2 *452:C1 0.000156622
5 *453:A2 *53:18 0.000270415
6 *453:A2 *75:10 0.00011379
*RES
1 *442:Y *453:A2 11.1 
*END

*D_NET *25 0.00098276
*CONN
*I *452:C1 I *D sky130_fd_sc_hd__a211o_1
*I *443:Y O *D sky130_fd_sc_hd__inv_2
*CAP
1 *452:C1 0.000139163
2 *443:Y 0.000139163
3 *452:C1 *452:A1 7.54747e-06
4 *452:C1 *453:B1 1.12643e-05
5 *452:C1 *453:C1 3.69113e-05
6 *452:C1 *30:33 1.4284e-05
7 *452:C1 *35:10 0.000162311
8 *452:C1 *35:49 0.00026784
9 *452:C1 *53:18 4.76553e-05
10 *453:A2 *452:C1 0.000156622
*RES
1 *443:Y *452:C1 7.805 
*END

*D_NET *26 0.000355116
*CONN
*I *447:B1 I *D sky130_fd_sc_hd__a21oi_1
*I *444:X O *D sky130_fd_sc_hd__and2b_1
*CAP
1 *447:B1 0.000115824
2 *444:X 0.000115824
3 *447:B1 *444:A_N 8.65905e-05
4 *447:B1 *447:A2 3.68769e-05
5 *447:B1 *75:16 0
*RES
1 *444:X *447:B1 9.12 
*END

*D_NET *27 0.00106169
*CONN
*I *447:A1 I *D sky130_fd_sc_hd__a21oi_1
*I *445:Y O *D sky130_fd_sc_hd__nand2b_1
*CAP
1 *447:A1 0.000337756
2 *445:Y 0.000337756
3 *447:A1 *454:A0 0
4 *447:A1 *470:A_N 8.65961e-05
5 *447:A1 *470:B 6.07768e-05
6 *447:A1 *71:16 0.000238803
*RES
1 *445:Y *447:A1 13.26 
*END

*D_NET *28 0.0012118
*CONN
*I *447:A2 I *D sky130_fd_sc_hd__a21oi_1
*I *446:Y O *D sky130_fd_sc_hd__nand2b_1
*CAP
1 *447:A2 0.000299012
2 *446:Y 0.000299012
3 *447:A2 *454:A1 4.82863e-05
4 *447:A2 *470:B 2.23485e-05
5 *447:A2 *471:B1 0.000265917
6 *447:A2 *53:18 8.40213e-05
7 *447:A2 *74:8 4.39001e-05
8 *447:A2 *74:14 2.7881e-05
9 *447:A2 *75:16 0
10 *447:B1 *447:A2 3.68769e-05
11 *492:A *447:A2 8.4546e-05
*RES
1 *446:Y *447:A2 13.755 
*END

*D_NET *29 0.00145598
*CONN
*I *453:B1 I *D sky130_fd_sc_hd__o221a_2
*I *447:Y O *D sky130_fd_sc_hd__a21oi_1
*CAP
1 *453:B1 0.000371738
2 *447:Y 0.000371738
3 *453:B1 *448:A 0
4 *453:B1 *451:A1 1.03592e-05
5 *453:B1 *451:B1 6.78133e-05
6 *453:B1 *467:A1 0.000179996
7 *453:B1 *467:S 4.82863e-05
8 *453:B1 *30:10 0.000187006
9 *453:B1 *53:18 6.03947e-06
10 *453:B1 *71:16 0.000115146
11 *453:B1 *75:16 8.65905e-05
12 *452:C1 *453:B1 1.12643e-05
*RES
1 *447:Y *453:B1 14.9888 
*END

*D_NET *30 0.00478581
*CONN
*I *475:C I *D sky130_fd_sc_hd__and3_1
*I *477:A_N I *D sky130_fd_sc_hd__nand2b_1
*I *452:A1 I *D sky130_fd_sc_hd__a211o_1
*I *451:A1 I *D sky130_fd_sc_hd__a21o_1
*I *448:Y O *D sky130_fd_sc_hd__nand2_1
*CAP
1 *475:C 3.68655e-05
2 *477:A_N 2.20827e-06
3 *452:A1 1.61943e-05
4 *451:A1 0.000137128
5 *448:Y 0.000230631
6 *30:56 0.000962109
7 *30:33 0.00112645
8 *30:10 0.00055498
9 *451:A1 *449:B 5.4003e-05
10 *451:A1 *451:B1 2.46007e-05
11 *451:A1 *452:A2 0
12 *451:A1 *452:B1 5.08304e-06
13 *451:A1 *453:B2 0.000108968
14 *475:C *477:B 0.000126793
15 *475:C *46:40 7.2491e-05
16 *475:C *50:18 1.60203e-05
17 *477:A_N *477:B 1.4578e-06
18 *477:A_N *50:18 1.45722e-05
19 *30:10 *448:A 3.00381e-05
20 *30:10 *467:S 8.34139e-05
21 *30:10 *35:49 5.17961e-05
22 *30:33 *449:B 0
23 *30:33 *452:B1 4.01019e-05
24 *30:33 *453:C1 3.79854e-05
25 *30:33 *35:49 8.53113e-06
26 *30:56 *453:C1 7.60965e-05
27 *30:56 *458:A2 0
28 *30:56 *465:A1 4.66826e-05
29 *30:56 *465:S 0.000167307
30 *30:56 *472:A1 0.000161698
31 *30:56 *475:B 9.82856e-06
32 *30:56 *42:6 2.75145e-05
33 *30:56 *46:40 0.000106533
34 *30:56 *53:18 0.000113976
35 *30:56 *54:10 8.49205e-05
36 *30:56 *67:34 2.96352e-05
37 *452:C1 *452:A1 7.54747e-06
38 *452:C1 *30:33 1.4284e-05
39 *453:B1 *451:A1 1.03592e-05
40 *453:B1 *30:10 0.000187006
*RES
1 *448:Y *30:10 8.0325 
2 *30:10 *451:A1 6.6825 
3 *30:10 *30:33 4.7825 
4 *30:33 *452:A1 1.96 
5 *30:33 *30:56 18.235 
6 *30:56 *477:A_N 1.73125 
7 *30:56 *475:C 2.98 
*END

*D_NET *31 0.000885458
*CONN
*I *452:A2 I *D sky130_fd_sc_hd__a211o_1
*I *451:A2 I *D sky130_fd_sc_hd__a21o_1
*I *449:X O *D sky130_fd_sc_hd__or2_1
*CAP
1 *452:A2 0.000161085
2 *451:A2 5.81586e-05
3 *449:X 0
4 *31:4 0.000219244
5 *451:A2 *449:A 4.99619e-05
6 *451:A2 *76:8 0.000201508
7 *451:A2 *76:12 1.08758e-05
8 *452:A2 *452:B1 4.18603e-06
9 *452:A2 *466:B 2.66935e-05
10 *452:A2 *76:8 3.66286e-05
11 *452:A2 *77:10 0
12 *451:A1 *452:A2 0
13 *494:A *451:A2 8.96017e-05
14 *494:A *452:A2 2.75145e-05
*RES
1 *449:X *31:4 1.6 
2 *31:4 *451:A2 3.79 
3 *31:4 *452:A2 8.195 
*END

*D_NET *32 0.000932462
*CONN
*I *451:B1 I *D sky130_fd_sc_hd__a21o_1
*I *450:X O *D sky130_fd_sc_hd__xor2_1
*CAP
1 *451:B1 0.000162605
2 *450:X 0.000162605
3 *451:B1 *448:A 0.000179987
4 *451:B1 *449:A 4.82919e-05
5 *451:B1 *453:B2 5.83373e-05
6 *451:B1 *72:20 0.000200699
7 *451:B1 *76:12 2.75229e-05
8 *451:A1 *451:B1 2.46007e-05
9 *453:B1 *451:B1 6.78133e-05
*RES
1 *450:X *451:B1 12.09 
*END

*D_NET *33 0.000563028
*CONN
*I *453:B2 I *D sky130_fd_sc_hd__o221a_2
*I *451:X O *D sky130_fd_sc_hd__a21o_1
*CAP
1 *453:B2 0.000137533
2 *451:X 0.000137533
3 *453:B2 *76:12 0.000120655
4 *451:A1 *453:B2 0.000108968
5 *451:B1 *453:B2 5.83373e-05
*RES
1 *451:X *453:B2 9.72 
*END

*D_NET *34 0.000572994
*CONN
*I *453:C1 I *D sky130_fd_sc_hd__o221a_2
*I *452:X O *D sky130_fd_sc_hd__a211o_1
*CAP
1 *453:C1 7.23887e-05
2 *452:X 7.23887e-05
3 *453:C1 *53:18 0.000277223
4 *452:C1 *453:C1 3.69113e-05
5 *30:33 *453:C1 3.79854e-05
6 *30:56 *453:C1 7.60965e-05
*RES
1 *452:X *453:C1 6.08 
*END

*D_NET *35 0.0105943
*CONN
*I *479:A0 I *D sky130_fd_sc_hd__mux2_1
*I *467:S I *D sky130_fd_sc_hd__mux2_1
*I *470:B I *D sky130_fd_sc_hd__nand2b_1
*I *471:A2 I *D sky130_fd_sc_hd__o21ai_1
*I *454:S I *D sky130_fd_sc_hd__mux2_1
*I *453:X O *D sky130_fd_sc_hd__o221a_2
*CAP
1 *479:A0 0.00280209
2 *467:S 8.83998e-05
3 *470:B 0.000134614
4 *471:A2 3.25082e-05
5 *454:S 3.61563e-05
6 *453:X 0
7 *35:49 0.00310505
8 *35:21 0.00017243
9 *35:10 0.000372848
10 *35:4 0.000545948
11 *454:S *70:27 8.49205e-05
12 *454:S *74:14 0.000122337
13 *467:S *452:B1 2.04531e-05
14 *467:S *466:B 0
15 *467:S *467:A1 8.40213e-05
16 *467:S *71:25 1.91597e-05
17 *470:B *444:A_N 2.94133e-05
18 *470:B *470:A_N 0
19 *470:B *471:B1 0.000147729
20 *470:B *71:16 6.24524e-05
21 *471:A2 *444:A_N 1.03592e-05
22 *471:A2 *471:A1 9.54469e-05
23 *471:A2 *471:B1 5.51574e-05
24 *479:A0 *475:B 0.000176319
25 *479:A0 *479:A1 0.00017857
26 *479:A0 *497:A 9.5799e-06
27 *479:A0 *64:16 0.000734981
28 *479:A0 *66:12 0.000155457
29 *479:A0 *67:18 0
30 *479:A0 *69:10 0.000109984
31 *35:10 *444:A_N 9.21168e-05
32 *35:10 *466:B 0.000154828
33 *35:10 *53:18 2.96742e-05
34 *35:10 *74:14 0.000182143
35 *35:21 *444:A_N 1.88904e-05
36 *35:49 *452:B1 2.49423e-05
37 *447:A1 *470:B 6.07768e-05
38 *447:A2 *470:B 2.23485e-05
39 *452:C1 *35:10 0.000162311
40 *452:C1 *35:49 0.00026784
41 *453:B1 *467:S 4.82863e-05
42 *30:10 *467:S 8.34139e-05
43 *30:10 *35:49 5.17961e-05
44 *30:33 *35:49 8.53113e-06
*RES
1 *453:X *35:4 1.6 
2 *35:4 *35:10 6.6 
3 *35:10 *454:S 2.74 
4 *35:10 *35:21 2.2325 
5 *35:21 *471:A2 4.8525 
6 *35:21 *470:B 6.885 
7 *35:4 *35:49 5.2625 
8 *35:49 *467:S 5.7375 
9 *35:49 *479:A0 9.9397 
*END

*D_NET *36 0.0028383
*CONN
*I *466:B I *D sky130_fd_sc_hd__nand2b_1
*I *454:X O *D sky130_fd_sc_hd__mux2_1
*CAP
1 *466:B 0.000900494
2 *454:X 0.000900494
3 *466:B *452:B1 0
4 *466:B *457:A_N 0
5 *466:B *466:A_N 5.89368e-05
6 *466:B *49:12 7.25921e-06
7 *466:B *53:18 0.000789593
8 *466:B *64:16 0
9 *452:A2 *466:B 2.66935e-05
10 *467:S *466:B 0
11 *35:10 *466:B 0.000154828
*RES
1 *454:X *466:B 19.7288 
*END

*D_NET *37 0.000564936
*CONN
*I *458:B1 I *D sky130_fd_sc_hd__a21oi_1
*I *455:X O *D sky130_fd_sc_hd__and2b_1
*CAP
1 *458:B1 0.000143068
2 *455:X 0.000143068
3 *458:B1 *455:A_N 4.43871e-06
4 *458:B1 *458:A2 1.73877e-05
5 *458:B1 *46:40 7.22354e-05
6 *458:B1 *61:10 5.02217e-05
7 *458:B1 *65:37 0.000134516
*RES
1 *455:X *458:B1 9.975 
*END

*D_NET *38 0.000170752
*CONN
*I *458:A1 I *D sky130_fd_sc_hd__a21oi_1
*I *456:Y O *D sky130_fd_sc_hd__nand2b_1
*CAP
1 *458:A1 1.664e-05
2 *456:Y 1.664e-05
3 *458:A1 *456:A_N 8.8266e-05
4 *481:A *458:A1 4.92062e-05
*RES
1 *456:Y *458:A1 3.995 
*END

*D_NET *39 0.00172047
*CONN
*I *458:A2 I *D sky130_fd_sc_hd__a21oi_1
*I *457:Y O *D sky130_fd_sc_hd__nand2b_1
*CAP
1 *458:A2 0.000418696
2 *457:Y 0.000418696
3 *458:A2 *455:A_N 4.88555e-05
4 *458:A2 *456:B 0
5 *458:A2 *469:A 0.000133408
6 *458:A2 *472:A0 0
7 *458:A2 *472:A1 0
8 *458:A2 *473:A1 7.04291e-05
9 *458:A2 *473:B1 0.000196364
10 *458:A2 *474:B 0
11 *458:A2 *475:B 0
12 *458:A2 *476:A3 0
13 *458:A2 *49:12 0.000308713
14 *458:A2 *51:12 2.10134e-05
15 *458:A2 *54:10 0
16 *458:A2 *61:10 8.69088e-05
17 *458:A2 *67:34 0
18 *458:B1 *458:A2 1.73877e-05
19 *30:56 *458:A2 0
*RES
1 *457:Y *458:A2 15.795 
*END

*D_NET *40 0.00189574
*CONN
*I *464:B1 I *D sky130_fd_sc_hd__o221a_1
*I *458:Y O *D sky130_fd_sc_hd__a21oi_1
*CAP
1 *464:B1 0.000358237
2 *458:Y 0.000358237
3 *464:B1 *464:C1 0.000135869
4 *464:B1 *42:6 0.000191226
5 *464:B1 *46:40 9.72473e-05
6 *464:B1 *61:10 4.66108e-05
7 *464:B1 *62:12 8.70361e-05
8 *464:B1 *65:16 9.27255e-06
9 *464:B1 *67:34 0.000158758
10 *464:A2 *464:B1 0.000393802
11 *481:A *464:B1 4.47209e-05
12 *482:A *464:B1 1.47256e-05
*RES
1 *458:Y *464:B1 15.705 
*END

*D_NET *41 0.00183291
*CONN
*I *462:A1 I *D sky130_fd_sc_hd__a21o_1
*I *463:A1 I *D sky130_fd_sc_hd__a211o_1
*I *477:B I *D sky130_fd_sc_hd__nand2b_1
*I *459:Y O *D sky130_fd_sc_hd__nand2_1
*CAP
1 *462:A1 4.30571e-05
2 *463:A1 0
3 *477:B 0.000253441
4 *459:Y 0
5 *41:8 0.000375749
6 *41:4 0.000165365
7 *462:A1 *462:A2 9.29472e-05
8 *462:A1 *63:25 1.41979e-05
9 *462:A1 *65:16 0.000239813
10 *462:A1 *67:22 2.49909e-05
11 *477:B *462:A2 8.53113e-06
12 *477:B *463:B1 5.53249e-06
13 *477:B *475:A 6.83488e-05
14 *477:B *475:B 5.63183e-05
15 *477:B *46:40 2.88028e-05
16 *477:B *50:18 5.46151e-05
17 *477:B *51:12 0
18 *477:B *63:29 2.01274e-05
19 *41:8 *459:A 2.23407e-05
20 *41:8 *462:A2 0.000142293
21 *41:8 *463:B1 3.45703e-05
22 *41:8 *67:18 4.12825e-05
23 *463:C1 *477:B 1.23331e-05
24 *475:C *477:B 0.000126793
25 *477:A_N *477:B 1.4578e-06
*RES
1 *459:Y *41:4 1.6 
2 *41:4 *41:8 4.655 
3 *41:8 *477:B 7.9875 
4 *41:8 *463:A1 3.6 
5 *41:4 *462:A1 3.775 
*END

*D_NET *42 0.00160183
*CONN
*I *463:A2 I *D sky130_fd_sc_hd__a211o_1
*I *462:A2 I *D sky130_fd_sc_hd__a21o_1
*I *460:X O *D sky130_fd_sc_hd__or2_1
*CAP
1 *463:A2 0
2 *462:A2 0.000134516
3 *460:X 7.37543e-05
4 *42:6 0.000208271
5 *462:A2 *459:A 3.09233e-05
6 *462:A2 *63:25 0.000220098
7 *462:A2 *63:29 0.000130106
8 *462:A2 *65:16 1.38871e-05
9 *462:A2 *67:22 9.61171e-05
10 *42:6 *460:A 3.63577e-05
11 *42:6 *460:B 4.82919e-05
12 *42:6 *464:C1 8.40269e-05
13 *42:6 *46:40 6.29692e-05
14 *462:A1 *462:A2 9.29472e-05
15 *464:B1 *42:6 0.000191226
16 *477:B *462:A2 8.53113e-06
17 *30:56 *42:6 2.75145e-05
18 *41:8 *462:A2 0.000142293
*RES
1 *460:X *42:6 4.12 
2 *42:6 *462:A2 10.49 
3 *42:6 *463:A2 1.6 
*END

*D_NET *43 0.000799354
*CONN
*I *462:B1 I *D sky130_fd_sc_hd__a21o_1
*I *461:X O *D sky130_fd_sc_hd__xor2_1
*CAP
1 *462:B1 0.000192916
2 *461:X 0.000192916
3 *462:B1 *464:A1 7.23602e-05
4 *462:B1 *62:29 5.30673e-05
5 *462:B1 *64:16 0
6 *462:B1 *65:16 0.000163199
7 *483:A *462:B1 0.000124895
*RES
1 *461:X *462:B1 11.115 
*END

*D_NET *44 0.000449017
*CONN
*I *464:B2 I *D sky130_fd_sc_hd__o221a_1
*I *462:X O *D sky130_fd_sc_hd__a21o_1
*CAP
1 *464:B2 0.000162749
2 *462:X 0.000162749
3 *464:B2 *463:B1 0
4 *464:B2 *464:A1 3.69224e-05
5 *464:B2 *63:25 8.65961e-05
*RES
1 *462:X *464:B2 9.375 
*END

*D_NET *45 0.000665643
*CONN
*I *464:C1 I *D sky130_fd_sc_hd__o221a_1
*I *463:X O *D sky130_fd_sc_hd__a211o_1
*CAP
1 *464:C1 0.000139241
2 *463:X 0.000139241
3 *464:C1 *460:A 4.66108e-05
4 *464:C1 *475:A 0.000120655
5 *464:B1 *464:C1 0.000135869
6 *42:6 *464:C1 8.40269e-05
*RES
1 *463:X *464:C1 6.425 
*END

*D_NET *46 0.00588696
*CONN
*I *479:A1 I *D sky130_fd_sc_hd__mux2_1
*I *468:S I *D sky130_fd_sc_hd__mux2_1
*I *472:S I *D sky130_fd_sc_hd__mux2_1
*I *465:S I *D sky130_fd_sc_hd__mux2_1
*I *464:X O *D sky130_fd_sc_hd__o221a_1
*CAP
1 *479:A1 0.000384019
2 *468:S 0
3 *472:S 0
4 *465:S 6.79398e-05
5 *464:X 0.000101005
6 *46:40 0.000565806
7 *46:12 0.000509414
8 *46:10 0.000496572
9 *465:S *472:A1 4.82919e-05
10 *465:S *473:A1 0.000186388
11 *465:S *53:18 0.000124895
12 *465:S *61:25 1.46828e-05
13 *479:A1 *497:A 4.99619e-05
14 *479:A1 *69:10 0.000878707
15 *46:10 *440:A 5.88016e-05
16 *46:12 *69:10 7.66083e-05
17 *46:40 *472:A1 0.000168229
18 *46:40 *475:B 6.4541e-05
19 *46:40 *50:18 0.000122325
20 *46:40 *61:25 0.000122325
21 *46:40 *62:12 4.82863e-05
22 *46:40 *63:29 5.85156e-05
23 *46:40 *67:34 2.1147e-05
24 *46:40 *69:10 0.000409382
25 *458:B1 *46:40 7.22354e-05
26 *463:C1 *46:10 0
27 *463:C1 *46:40 8.09157e-05
28 *464:A2 *46:40 7.9642e-06
29 *464:B1 *46:40 9.72473e-05
30 *468:A0 *479:A1 4.82919e-05
31 *468:A0 *46:12 8.65905e-05
32 *468:A0 *46:40 0.00012657
33 *475:C *46:40 7.2491e-05
34 *477:B *46:40 2.88028e-05
35 *479:A0 *479:A1 0.00017857
36 *23:12 *479:A1 0.000172625
37 *30:56 *465:S 0.000167307
38 *30:56 *46:40 0.000106533
39 *42:6 *46:40 6.29692e-05
*RES
1 *464:X *46:10 7.235 
2 *46:10 *46:12 0.795 
3 *46:12 *46:40 18.235 
4 *46:40 *465:S 4.81 
5 *46:40 *472:S 1.6 
6 *46:12 *468:S 1.6 
7 *46:10 *479:A1 12.52 
*END

*D_NET *47 0.000409427
*CONN
*I *466:A_N I *D sky130_fd_sc_hd__nand2b_1
*I *465:X O *D sky130_fd_sc_hd__mux2_1
*CAP
1 *466:A_N 0.000135143
2 *465:X 0.000135143
3 *466:A_N *457:A_N 3.18293e-05
4 *466:A_N *49:12 4.83735e-05
5 *466:B *466:A_N 5.89368e-05
*RES
1 *465:X *466:A_N 9.825 
*END

*D_NET *48 0.000829519
*CONN
*I *473:B1 I *D sky130_fd_sc_hd__o211a_1
*I *466:Y O *D sky130_fd_sc_hd__nand2b_1
*CAP
1 *473:B1 0.000166858
2 *466:Y 0.000166858
3 *473:B1 *457:B 1.20741e-05
4 *473:B1 *469:A 0
5 *473:B1 *473:A1 4.14666e-06
6 *473:B1 *476:A1 4.66108e-05
7 *473:B1 *49:12 0.000219199
8 *473:B1 *51:12 1.74083e-05
9 *458:A2 *473:B1 0.000196364
*RES
1 *466:Y *473:B1 7.46 
*END

*D_NET *49 0.00247976
*CONN
*I *469:A I *D sky130_fd_sc_hd__nand2_1
*I *474:A I *D sky130_fd_sc_hd__nor2_1
*I *467:X O *D sky130_fd_sc_hd__mux2_1
*CAP
1 *469:A 0.000120661
2 *474:A 9.90442e-05
3 *467:X 0.000496104
4 *49:12 0.00071581
5 *469:A *473:A1 5.83121e-06
6 *469:A *476:A3 1.44259e-05
7 *469:A *478:A1 3.44693e-05
8 *469:A *478:B1 4.99619e-05
9 *469:A *50:18 0
10 *469:A *51:12 0.000151312
11 *469:A *69:10 2.30292e-05
12 *474:A *474:B 0
13 *474:A *476:A3 5.21627e-05
14 *458:A2 *469:A 0.000133408
15 *458:A2 *49:12 0.000308713
16 *466:A_N *49:12 4.83735e-05
17 *466:B *49:12 7.25921e-06
18 *473:B1 *469:A 0
19 *473:B1 *49:12 0.000219199
*RES
1 *467:X *49:12 11.415 
2 *49:12 *474:A 5.235 
3 *49:12 *469:A 7.2 
*END

*D_NET *50 0.00207019
*CONN
*I *469:B I *D sky130_fd_sc_hd__nand2_1
*I *474:B I *D sky130_fd_sc_hd__nor2_1
*I *468:X O *D sky130_fd_sc_hd__mux2_1
*CAP
1 *469:B 0
2 *474:B 0.000271149
3 *468:X 0.000243776
4 *50:18 0.000514925
5 *474:B *475:B 0
6 *474:B *476:C1 0.000278111
7 *474:B *478:A2 0
8 *50:18 *475:B 5.16348e-05
9 *50:18 *478:B1 4.82919e-05
10 *50:18 *69:10 0.000454767
11 *458:A2 *474:B 0
12 *469:A *50:18 0
13 *474:A *474:B 0
14 *475:C *50:18 1.60203e-05
15 *477:A_N *50:18 1.45722e-05
16 *477:B *50:18 5.46151e-05
17 *46:40 *50:18 0.000122325
*RES
1 *468:X *50:18 11.375 
2 *50:18 *474:B 10.52 
3 *50:18 *469:B 1.6 
*END

*D_NET *51 0.00172725
*CONN
*I *476:A1 I *D sky130_fd_sc_hd__a311o_1
*I *473:C1 I *D sky130_fd_sc_hd__o211a_1
*I *469:Y O *D sky130_fd_sc_hd__nand2_1
*CAP
1 *476:A1 9.33316e-05
2 *473:C1 0
3 *469:Y 0.000377923
4 *51:12 0.000471255
5 *476:A1 *476:A2 0.000222112
6 *476:A1 *476:A3 0.000199727
7 *51:12 *473:A1 4.82863e-05
8 *51:12 *478:A1 5.52411e-05