*SPEF "ieee 1481-1999"
*DESIGN "Controller"
*DATE "18:58:22 Wednesday January 21, 2026"
*VENDOR "The OpenROAD Project"
*PROGRAM "OpenROAD"
*VERSION "edf00dff99f6c40d67a30c0e22a8191c5d2ed9d6"
*DESIGN_FLOW "NAME_SCOPE LOCAL" "PIN_CAP NONE"
*DIVIDER /
*DELIMITER :
*BUS_DELIMITER []
*T_UNIT 1 NS
*C_UNIT 1 PF
*R_UNIT 1 OHM
*L_UNIT 1 HENRY

*NAME_MAP
*3 clk
*4 clr_me
*5 frame_done
*6 rst_n
*7 start
*8 _00_
*9 _01_
*10 _02_
*11 _03_
*12 _04_
*13 _05_
*14 _06_
*15 _07_
*16 _08_
*17 _09_
*18 _10_
*19 _11_
*20 _12_
*21 clknet_0_clk
*22 clknet_1_0__leaf_clk
*23 clknet_1_1__leaf_clk
*24 net1
*25 net2
*26 net3
*27 net4
*28 net5
*29 net6
*30 net7
*31 next_state\[0\]
*32 next_state\[1\]
*33 state\[0\]
*34 state\[1\]
*35 sym_cnt\[0\]
*36 sym_cnt\[1\]
*37 sym_cnt\[2\]
*38 sym_cnt\[3\]
*39 FILLER_0_109
*40 FILLER_0_113
*41 FILLER_0_125
*42 FILLER_0_137
*43 FILLER_0_141
*44 FILLER_0_15
*45 FILLER_0_153
*46 FILLER_0_165
*47 FILLER_0_173
*48 FILLER_0_185
*49 FILLER_0_189
*50 FILLER_0_19
*51 FILLER_0_29
*52 FILLER_0_3
*53 FILLER_0_57
*54 FILLER_0_79
*55 FILLER_0_83
*56 FILLER_0_85
*57 FILLER_0_97
*58 FILLER_1_105
*59 FILLER_1_111
*60 FILLER_1_113
*61 FILLER_1_125
*62 FILLER_1_137
*63 FILLER_1_149
*64 FILLER_1_15
*65 FILLER_1_161
*66 FILLER_1_167
*67 FILLER_1_169
*68 FILLER_1_181
*69 FILLER_1_189
*70 FILLER_1_27
*71 FILLER_1_3
*72 FILLER_1_31
*73 FILLER_1_55
*74 FILLER_1_57
*75 FILLER_2_108
*76 FILLER_2_120
*77 FILLER_2_132
*78 FILLER_2_141
*79 FILLER_2_15
*80 FILLER_2_153
*81 FILLER_2_165
*82 FILLER_2_177
*83 FILLER_2_189
*84 FILLER_2_21
*85 FILLER_2_3
*86 FILLER_2_58
*87 FILLER_2_79
*88 FILLER_2_85
*89 FILLER_3_108
*90 FILLER_3_113
*91 FILLER_3_125
*92 FILLER_3_137
*93 FILLER_3_149
*94 FILLER_3_15
*95 FILLER_3_161
*96 FILLER_3_167
*97 FILLER_3_169
*98 FILLER_3_181
*99 FILLER_3_189
*100 FILLER_3_27
*101 FILLER_3_3
*102 FILLER_3_41
*103 FILLER_3_52
*104 FILLER_3_96
*105 FILLER_4_109
*106 FILLER_4_121
*107 FILLER_4_133
*108 FILLER_4_139
*109 FILLER_4_141
*110 FILLER_4_153
*111 FILLER_4_165
*112 FILLER_4_177
*113 FILLER_4_18
*114 FILLER_4_185
*115 FILLER_4_26
*116 FILLER_4_29
*117 FILLER_4_41
*118 FILLER_4_48
*119 FILLER_4_6
*120 FILLER_4_83
*121 FILLER_4_85
*122 FILLER_4_97
*123 FILLER_5_109
*124 FILLER_5_113
*125 FILLER_5_125
*126 FILLER_5_137
*127 FILLER_5_149
*128 FILLER_5_15
*129 FILLER_5_161
*130 FILLER_5_167
*131 FILLER_5_169
*132 FILLER_5_181
*133 FILLER_5_189
*134 FILLER_5_27
*135 FILLER_5_3
*136 FILLER_5_39
*137 FILLER_5_51
*138 FILLER_5_55
*139 FILLER_5_57
*140 FILLER_5_73
*141 FILLER_5_85
*142 FILLER_5_97
*143 FILLER_6_109
*144 FILLER_6_121
*145 FILLER_6_133
*146 FILLER_6_139
*147 FILLER_6_141
*148 FILLER_6_15
*149 FILLER_6_153
*150 FILLER_6_165
*151 FILLER_6_177
*152 FILLER_6_189
*153 FILLER_6_27
*154 FILLER_6_29
*155 FILLER_6_3
*156 FILLER_6_41
*157 FILLER_6_53
*158 FILLER_6_65
*159 FILLER_6_77
*160 FILLER_6_83
*161 FILLER_6_85
*162 FILLER_6_97
*163 FILLER_7_109
*164 FILLER_7_113
*165 FILLER_7_125
*166 FILLER_7_137
*167 FILLER_7_141
*168 FILLER_7_15
*169 FILLER_7_153
*170 FILLER_7_165
*171 FILLER_7_169
*172 FILLER_7_181
*173 FILLER_7_189
*174 FILLER_7_27
*175 FILLER_7_29
*176 FILLER_7_3
*177 FILLER_7_41
*178 FILLER_7_53
*179 FILLER_7_57
*180 FILLER_7_69
*181 FILLER_7_81
*182 FILLER_7_85
*183 FILLER_7_97
*184 PHY_EDGE_ROW_0_Left_8
*185 PHY_EDGE_ROW_0_Right_0
*186 PHY_EDGE_ROW_1_Left_9
*187 PHY_EDGE_ROW_1_Right_1
*188 PHY_EDGE_ROW_2_Left_10
*189 PHY_EDGE_ROW_2_Right_2
*190 PHY_EDGE_ROW_3_Left_11
*191 PHY_EDGE_ROW_3_Right_3
*192 PHY_EDGE_ROW_4_Left_12
*193 PHY_EDGE_ROW_4_Right_4
*194 PHY_EDGE_ROW_5_Left_13
*195 PHY_EDGE_ROW_5_Right_5
*196 PHY_EDGE_ROW_6_Left_14
*197 PHY_EDGE_ROW_6_Right_6
*198 PHY_EDGE_ROW_7_Left_15
*199 PHY_EDGE_ROW_7_Right_7
*200 TAP_TAPCELL_ROW_0_16
*201 TAP_TAPCELL_ROW_0_17
*202 TAP_TAPCELL_ROW_0_18
*203 TAP_TAPCELL_ROW_0_19
*204 TAP_TAPCELL_ROW_0_20
*205 TAP_TAPCELL_ROW_0_21
*206 TAP_TAPCELL_ROW_1_22
*207 TAP_TAPCELL_ROW_1_23
*208 TAP_TAPCELL_ROW_1_24
*209 TAP_TAPCELL_ROW_2_25
*210 TAP_TAPCELL_ROW_2_26
*211 TAP_TAPCELL_ROW_2_27
*212 TAP_TAPCELL_ROW_3_28
*213 TAP_TAPCELL_ROW_3_29
*214 TAP_TAPCELL_ROW_3_30
*215 TAP_TAPCELL_ROW_4_31
*216 TAP_TAPCELL_ROW_4_32
*217 TAP_TAPCELL_ROW_4_33
*218 TAP_TAPCELL_ROW_5_34
*219 TAP_TAPCELL_ROW_5_35
*220 TAP_TAPCELL_ROW_5_36
*221 TAP_TAPCELL_ROW_6_37
*222 TAP_TAPCELL_ROW_6_38
*223 TAP_TAPCELL_ROW_6_39
*224 TAP_TAPCELL_ROW_7_40
*225 TAP_TAPCELL_ROW_7_41
*226 TAP_TAPCELL_ROW_7_42
*227 TAP_TAPCELL_ROW_7_43
*228 TAP_TAPCELL_ROW_7_44
*229 TAP_TAPCELL_ROW_7_45
*230 _13_
*231 _14_
*232 _15_
*233 _16_
*234 _17_
*235 _18_
*236 _19_
*237 _20_
*238 _21_
*239 _22_
*240 _23_
*241 _24_
*242 _25_
*243 _26_
*244 _27_
*245 _28_
*246 _29_
*247 _30_
*248 _31_
*249 _32_
*250 _33_
*251 _34_
*252 _35_
*253 clkbuf_0_clk
*254 clkbuf_1_0__f_clk
*255 clkbuf_1_1__f_clk
*256 hold1
*257 hold2
*258 hold3
*259 input1
*260 input2
*261 output3
*262 output4

*PORTS
clk I
clr_me O
frame_done O
rst_n I
start I

*D_NET *3 0.00271909
*CONN
*P clk I
*I *253:A I *D sky130_fd_sc_hd__clkbuf_16
*CAP
1 clk 0.000999764
2 *253:A 0.000999764
3 *253:A *236:B 0.000114314
4 *253:A *250:D 0
5 *253:A *255:A 0.00044947
6 *253:A *18:10 3.32631e-05
7 *253:A *23:8 9.22103e-06
8 *253:A *27:31 0.000113295
*RES
1 clk *253:A 34.6571 
*END

*D_NET *4 0.000962836
*CONN
*P clr_me O
*I *261:X O *D sky130_fd_sc_hd__buf_2
*CAP
1 clr_me 0.000459266
2 *261:X 0.000459266
3 clr_me *243:A1 1.24368e-05
4 clr_me *261:A 3.18676e-05
*RES
1 *261:X clr_me 22.05 
*END

*D_NET *5 0.000452413
*CONN
*P frame_done O
*I *262:X O *D sky130_fd_sc_hd__buf_2
*CAP
1 frame_done 0.000220109
2 *262:X 0.000220109
3 frame_done *27:43 1.21955e-05
*RES
1 *262:X frame_done 18.1229 
*END

*D_NET *6 0.000917803
*CONN
*P rst_n I
*I *259:A I *D sky130_fd_sc_hd__clkbuf_2
*CAP
1 rst_n 0.000458902
2 *259:A 0.000458902
*RES
1 rst_n *259:A 22.3536 
*END

*D_NET *7 0.000531695
*CONN
*P start I
*I *260:A I *D sky130_fd_sc_hd__clkbuf_1
*CAP
1 start 0.000265848
2 *260:A 0.000265848
*RES
1 start *260:A 20.8869 
*END

*D_NET *8 0.0011592
*CONN
*I *249:D I *D sky130_fd_sc_hd__dfrtp_1
*I *233:Y O *D sky130_fd_sc_hd__nor2_1
*CAP
1 *249:D 0.00029744
2 *233:Y 0.00029744
3 *249:D *252:D 0.000149896
4 *249:D *19:16 0.000142374
5 *249:D *33:23 7.6494e-05
6 *249:D *33:36 0.000195555
*RES
1 *233:Y *249:D 34.9214 
*END

*D_NET *9 0.00127076
*CONN
*I *250:D I *D sky130_fd_sc_hd__dfrtp_1
*I *236:X O *D sky130_fd_sc_hd__and3_1
*CAP
1 *250:D 0.000548736
2 *236:X 0.000548736
3 *250:D *236:A 7.50473e-05
4 *250:D *236:B 0
5 *250:D *250:CLK 8.95956e-05
6 *250:D *24:22 8.64516e-06
7 *253:A *250:D 0
*RES
1 *236:X *250:D 37.2964 
*END

*D_NET *10 0.000624314
*CONN
*I *251:D I *D sky130_fd_sc_hd__dfrtp_1
*I *239:X O *D sky130_fd_sc_hd__and3_1
*CAP
1 *251:D 0.000133121
2 *239:X 0.000133121
3 *251:D *239:C 3.48139e-05
4 *251:D *240:A 3.18676e-05
5 *251:D *240:C 8.37135e-05
6 *251:D *24:36 0.000207676
*RES
1 *239:X *251:D 31.8321 
*END

*D_NET *11 0.00138908
*CONN
*I *252:D I *D sky130_fd_sc_hd__dfrtp_1
*I *240:X O *D sky130_fd_sc_hd__and3_1
*CAP
1 *252:D 0.000424493
2 *240:X 0.000424493
3 *252:D *231:A_N 0
4 *252:D *233:A 0.000229456
5 *252:D *249:CLK 6.07328e-05
6 *252:D *251:CLK 0.000100009
7 *252:D *13:40 0
8 *252:D *34:30 0
9 *249:D *252:D 0.000149896
*RES
1 *240:X *252:D 35.975 
*END

*D_NET *12 0.000320799
*CONN
*I *246:A1 I *D sky130_fd_sc_hd__a211oi_1
*I *230:Y O *D sky130_fd_sc_hd__inv_2
*CAP
1 *246:A1 0.000122876
2 *230:Y 0.000122876
3 *246:A1 *246:C1 7.50473e-05
*RES
1 *230:Y *246:A1 20.3679 
*END

*D_NET *13 0.00878628
*CONN
*I *236:A I *D sky130_fd_sc_hd__and3_1
*I *239:A I *D sky130_fd_sc_hd__and3_1
*I *240:B I *D sky130_fd_sc_hd__and3_1
*I *244:A I *D sky130_fd_sc_hd__and2_1
*I *246:B1 I *D sky130_fd_sc_hd__a211oi_1
*I *231:X O *D sky130_fd_sc_hd__and2b_1
*CAP
1 *236:A 0.000588288
2 *239:A 0.000178556
3 *240:B 0.000154611
4 *244:A 2.03441e-05
5 *246:B1 0.000190079
6 *231:X 0
7 *13:63 0.00116986
8 *13:40 0.00145891
9 *13:14 0.000734047
10 *13:4 0.00142491
11 *236:A *236:C 0.00017982
12 *236:A *237:A1 3.41367e-05
13 *236:A *237:A2 0.000171289
14 *236:A *237:B1 6.22471e-05
15 *236:A *24:55 4.11946e-05
16 *236:A *35:6 4.33246e-05
17 *236:A *35:15 9.46588e-05
18 *236:A *36:23 1.28585e-05
19 *236:A *36:32 6.12067e-05
20 *239:A *239:C 0.00014758
21 *239:A *18:10 3.69697e-05
22 *239:A *24:55 1.09232e-05
23 *239:A *36:23 0.000192722
24 *240:B *233:A 9.91086e-05
25 *240:B *233:B 0
26 *240:B *251:CLK 0
27 *244:A *19:16 5.7661e-06
28 *246:B1 *243:A2 0.000200929
29 *13:14 *243:A2 4.88637e-05
30 *13:14 *246:A2 0
31 *13:14 *248:D 5.49553e-05
32 *13:14 *252:CLK 9.40759e-05
33 *13:14 *19:16 0.000142004
34 *13:14 *25:10 0
35 *13:40 *231:A_N 0.00014285
36 *13:40 *233:A 0.000382424
37 *13:40 *249:CLK 0
38 *13:40 *251:CLK 0
39 *13:40 *252:CLK 0.000164624
40 *13:63 *254:A 2.98342e-05
41 *13:63 *255:A 0.000297797
42 *13:63 *18:10 2.89114e-05
43 *13:63 *24:55 1.05524e-05
44 *250:D *236:A 7.50473e-05
45 *252:D *13:40 0
*RES
1 *231:X *13:4 9.3 
2 *13:4 *13:14 16.8393 
3 *13:14 *246:B1 21.8179 
4 *13:14 *244:A 9.72857 
5 *13:4 *13:40 17.8214 
6 *13:40 *240:B 16.3536 
7 *13:40 *13:63 16.9554 
8 *13:63 *239:A 18.9339 
9 *13:63 *236:A 24.4696 
*END

*D_NET *14 0.00249948
*CONN
*I *233:B I *D sky130_fd_sc_hd__nor2_1
*I *243:A1 I *D sky130_fd_sc_hd__o21ai_1
*I *232:Y O *D sky130_fd_sc_hd__nand2b_1
*CAP
1 *233:B 0.000195155
2 *243:A1 0.000815085
3 *232:Y 0
4 *14:4 0.00101024
5 *233:B *232:B 0.000179527
6 *233:B *251:CLK 0
7 *233:B *33:23 8.25098e-05
8 *243:A1 *232:A_N 1.74352e-05
9 *243:A1 *232:B 7.43578e-06
10 *243:A1 *243:B1 0.000166406
11 *243:A1 *247:D 1.32552e-05
12 clr_me *243:A1 1.24368e-05
13 *240:B *233:B 0
*RES
1 *232:Y *14:4 9.3 
2 *14:4 *243:A1 21.4964 
3 *14:4 *233:B 22.3 
*END

*D_NET *15 0.00242844
*CONN
*I *236:B I *D sky130_fd_sc_hd__and3_1
*I *234:X O *D sky130_fd_sc_hd__or2_1
*CAP
1 *236:B 0.000548884
2 *234:X 0.000548884
3 *236:B *234:B 0.000353079
4 *236:B *239:B 0.000768519
5 *236:B *36:12 9.47613e-05
6 *250:D *236:B 0
7 *253:A *236:B 0.000114314
*RES
1 *234:X *236:B 42.1357 
*END

*D_NET *16 0.00127194
*CONN
*I *236:C I *D sky130_fd_sc_hd__and3_1
*I *235:Y O *D sky130_fd_sc_hd__nand2_1
*CAP
1 *236:C 0.000344999
2 *235:Y 0.000344999
3 *236:C *237:B1 0.000227532
4 *236:C *241:A_N 3.92854e-05
5 *236:C *241:B 5.52238e-05
6 *236:C *35:49 8.00806e-05
7 *236:A *236:C 0.00017982
*RES
1 *235:Y *236:C 33.1625 
*END

*D_NET *17 0.00225067
*CONN
*I *239:B I *D sky130_fd_sc_hd__and3_1
*I *237:X O *D sky130_fd_sc_hd__a21o_1
*CAP
1 *239:B 0.00073133
2 *237:X 0.00073133
3 *239:B *234:B 0
4 *239:B *27:31 1.94879e-05
5 *239:B *36:12 0
6 *239:B *37:10 0
7 *239:B *37:21 0
8 *236:B *239:B 0.000768519
*RES
1 *237:X *239:B 39.3679 
*END

*D_NET *18 0.00247052
*CONN
*I *240:C I *D sky130_fd_sc_hd__and3_1
*I *239:C I *D sky130_fd_sc_hd__and3_1
*I *238:Y O *D sky130_fd_sc_hd__nand3_1
*CAP
1 *240:C 0.000440529
2 *239:C 0.000154282
3 *238:Y 0.000177773
4 *18:10 0.000772585
5 *239:C *234:A 1.95435e-05
6 *239:C *24:36 5.66157e-05
7 *239:C *24:55 8.15095e-05
8 *240:C *233:A 6.04072e-05
9 *240:C *240:A 0.000230475
10 *240:C *251:CLK 1.69961e-05
11 *240:C *24:26 1.58163e-05
12 *240:C *24:36 2.13481e-06
13 *18:10 *255:A 7.48301e-06
14 *18:10 *24:55 6.91157e-05
15 *239:A *239:C 0.00014758
16 *239:A *18:10 3.69697e-05
17 *251:D *239:C 3.48139e-05
18 *251:D *240:C 8.37135e-05
19 *253:A *18:10 3.32631e-05
20 *13:63 *18:10 2.89114e-05
*RES
1 *238:Y *18:10 16.6036 
2 *18:10 *239:C 17.7643 
3 *18:10 *240:C 19.7464 
*END

*D_NET *19 0.00504841
*CONN
*I *244:B I *D sky130_fd_sc_hd__and2_1
*I *243:A2 I *D sky130_fd_sc_hd__o21ai_1
*I *241:X O *D sky130_fd_sc_hd__and4b_1
*CAP
1 *244:B 0
2 *243:A2 0.000345485
3 *241:X 0.00120427
4 *19:16 0.00154976
5 *243:A2 *242:C_N 0.000186669
6 *243:A2 *246:A2 0.000117388
7 *243:A2 *247:D 0
8 *243:A2 *248:CLK 0
9 *243:A2 *248:D 0
10 *243:A2 *261:A 0.00011191
11 *19:16 *242:A 0.000269378
12 *19:16 *242:B 5.33005e-05
13 *19:16 *242:C_N 0.000125491
14 *19:16 *249:RESET_B 9.23695e-05
15 *19:16 *33:36 0.000435157
16 *19:16 *35:6 1.72894e-05
17 *244:A *19:16 5.7661e-06
18 *246:B1 *243:A2 0.000200929
19 *249:D *19:16 0.000142374
20 *13:14 *243:A2 4.88637e-05
21 *13:14 *19:16 0.000142004
*RES
1 *241:X *19:16 30.1571 
2 *19:16 *243:A2 27.6929 
3 *19:16 *244:B 9.3 
*END

*D_NET *20 0.00186094
*CONN
*I *243:B1 I *D sky130_fd_sc_hd__o21ai_1
*I *242:X O *D sky130_fd_sc_hd__or3b_1
*CAP
1 *243:B1 0.00066215
2 *242:X 0.00066215
3 *243:B1 *230:A 0.000150625
4 *243:B1 *247:D 0.000144773
5 *243:B1 *22:16 7.48356e-05
6 *243:A1 *243:B1 0.000166406
*RES
1 *242:X *243:B1 39.9393 
*END

*D_NET *21 0.00331536
*CONN
*I *255:A I *D sky130_fd_sc_hd__clkbuf_16
*I *254:A I *D sky130_fd_sc_hd__clkbuf_16
*I *253:X O *D sky130_fd_sc_hd__clkbuf_16
*CAP
1 *255:A 0.000223553
2 *254:A 0.000284783
3 *253:X 0
4 *21:4 0.000508336
5 *254:A *246:C1 0.000265453
6 *254:A *23:8 0.000158682
7 *254:A *27:31 4.27935e-05
8 *255:A *23:8 0.00104718
9 *253:A *255:A 0.00044947
10 *13:63 *254:A 2.98342e-05
11 *13:63 *255:A 0.000297797
12 *18:10 *255:A 7.48301e-06
*RES
1 *253:X *21:4 9.3 
2 *21:4 *254:A 15.6214 
3 *21:4 *255:A 20.0143 
*END

*D_NET *22 0.00318467
*CONN
*I *252:CLK I *D sky130_fd_sc_hd__dfrtp_1
*I *247:CLK I *D sky130_fd_sc_hd__dfrtp_1
*I *248:CLK I *D sky130_fd_sc_hd__dfrtp_1
*I *254:X O *D sky130_fd_sc_hd__clkbuf_16
*CAP
1 *252:CLK 0.000409668
2 *247:CLK 0
3 *248:CLK 0.000116355
4 *254:X 4.2258e-05
5 *22:16 0.00043361
6 *22:8 0.000769182
7 *248:CLK *247:D 0.000181393
8 *248:CLK *248:D 0.000170676
9 *248:CLK *261:A 0
10 *252:CLK *230:A 0.000101545
11 *252:CLK *231:A_N 0.00014285
12 *252:CLK *231:B 0.000308887
13 *22:8 *246:C1 2.84026e-05
14 *22:16 *230:A 7.90803e-05
15 *22:16 *247:D 6.7224e-05
16 *243:A2 *248:CLK 0
17 *243:B1 *22:16 7.48356e-05
18 *13:14 *252:CLK 9.40759e-05
19 *13:40 *252:CLK 0.000164624
*RES
1 *254:X *22:8 14.3357 
2 *22:8 *22:16 10.375 
3 *22:16 *248:CLK 21.3893 
4 *22:16 *247:CLK 9.3 
5 *22:8 *252:CLK 23.7464 
*END

*D_NET *23 0.00637926
*CONN
*I *250:CLK I *D sky130_fd_sc_hd__dfrtp_1
*I *249:CLK I *D sky130_fd_sc_hd__dfrtp_1
*I *251:CLK I *D sky130_fd_sc_hd__dfrtp_1
*I *255:X O *D sky130_fd_sc_hd__clkbuf_16
*CAP
1 *250:CLK 0.000225219
2 *249:CLK 7.6731e-05
3 *251:CLK 0.000224027
4 *255:X 0
5 *23:8 0.00161136
6 *23:4 0.00153582
7 *250:CLK *27:31 8.57023e-05
8 *251:CLK *233:A 0.000271352
9 *251:CLK *240:A 5.71472e-05
10 *251:CLK *24:36 0.000184359
11 *251:CLK *27:31 2.09897e-05
12 *251:CLK *33:23 0
13 *23:8 *246:C1 6.05161e-06
14 *23:8 *27:31 0.000598085
15 *233:B *251:CLK 0
16 *240:B *251:CLK 0
17 *240:C *251:CLK 1.69961e-05
18 *250:D *250:CLK 8.95956e-05
19 *252:D *249:CLK 6.07328e-05
20 *252:D *251:CLK 0.000100009
21 *253:A *23:8 9.22103e-06
22 *254:A *23:8 0.000158682
23 *255:A *23:8 0.00104718
24 *13:40 *249:CLK 0
25 *13:40 *251:CLK 0
*RES
1 *255:X *23:4 9.3 
2 *23:4 *23:8 23.1071 
3 *23:8 *251:CLK 20.3714 
4 *23:8 *249:CLK 15.4429 
5 *23:4 *250:CLK 22.4071 
*END

*D_NET *24 0.0099147
*CONN
*I *251:RESET_B I *D sky130_fd_sc_hd__dfrtp_1
*I *252:RESET_B I *D sky130_fd_sc_hd__dfrtp_1
*I *249:RESET_B I *D sky130_fd_sc_hd__dfrtp_1
*I *247:RESET_B I *D sky130_fd_sc_hd__dfrtp_1
*I *248:RESET_B I *D sky130_fd_sc_hd__dfrtp_1
*I *250:RESET_B I *D sky130_fd_sc_hd__dfrtp_1
*I *259:X O *D sky130_fd_sc_hd__clkbuf_2
*CAP
1 *251:RESET_B 1.91209e-05
2 *252:RESET_B 0.000252756
3 *249:RESET_B 3.4472e-05
4 *247:RESET_B 3.49772e-05
5 *248:RESET_B 0.000170722
6 *250:RESET_B 0.000158961
7 *259:X 0.0018556
8 *24:55 0.000560495
9 *24:36 0.000993899
10 *24:26 0.00120668
11 *24:22 0.000773169
12 *24:12 0.00262339
13 *247:RESET_B *233:A 0
14 *248:RESET_B *232:B 0
15 *248:RESET_B *34:19 0
16 *252:RESET_B *235:A 0
17 *252:RESET_B *240:A 0.000142856
18 *252:RESET_B *257:A 9.25014e-06
19 *252:RESET_B *38:6 0.000186662
20 *24:22 *37:10 2.27416e-05
21 *24:36 *233:A 5.23057e-05
22 *24:36 *240:A 3.57315e-05
23 *24:55 *235:A 0
24 *24:55 *240:A 0
25 *24:55 *36:32 0
26 *236:A *24:55 4.11946e-05
27 *239:A *24:55 1.09232e-05
28 *239:C *24:36 5.66157e-05
29 *239:C *24:55 8.15095e-05
30 *240:C *24:26 1.58163e-05
31 *240:C *24:36 2.13481e-06
32 *250:D *24:22 8.64516e-06
33 *251:CLK *24:36 0.000184359
34 *251:D *24:36 0.000207676
35 *13:63 *24:55 1.05524e-05
36 *18:10 *24:55 6.91157e-05
37 *19:16 *249:RESET_B 9.23695e-05
*RES
1 *259:X *24:12 47.2643 
2 *24:12 *250:RESET_B 3.75893 
3 *24:12 *24:22 11.125 
4 *24:22 *24:26 6.67857 
5 *24:26 *24:36 17.4107 
6 *24:36 *248:RESET_B 11.7857 
7 *24:36 *247:RESET_B 0.669643 
8 *24:26 *24:55 5.58929 
9 *24:55 *249:RESET_B 5.38393 
10 *24:55 *252:RESET_B 9.79464 
11 *24:22 *251:RESET_B 0.366071 
*END

*D_NET *25 0.00279424
*CONN
*I *242:C_N I *D sky130_fd_sc_hd__or3b_1
*I *246:A2 I *D sky130_fd_sc_hd__a211oi_1
*I *260:X O *D sky130_fd_sc_hd__clkbuf_1
*CAP
1 *242:C_N 0.000159419
2 *246:A2 0.00014887
3 *260:X 0.000874055
4 *25:10 0.00118234
5 *246:A2 *248:D 0
6 *243:A2 *242:C_N 0.000186669
7 *243:A2 *246:A2 0.000117388
8 *13:14 *246:A2 0
9 *13:14 *25:10 0
10 *19:16 *242:C_N 0.000125491
*RES
1 *260:X *25:10 24.3 
2 *25:10 *246:A2 16.9607 
3 *25:10 *242:C_N 17.3536 
*END

*D_NET *26 0.000613645
*CONN
*I *261:A I *D sky130_fd_sc_hd__buf_2
*I *246:Y O *D sky130_fd_sc_hd__a211oi_1
*CAP
1 *261:A 0.000234934
2 *246:Y 0.000234934
3 clr_me *261:A 3.18676e-05
4 *243:A2 *261:A 0.00011191
5 *248:CLK *261:A 0
*RES
1 *246:Y *261:A 32.8143 
*END

*D_NET *27 0.0119528
*CONN
*I *262:A I *D sky130_fd_sc_hd__buf_2
*I *246:C1 I *D sky130_fd_sc_hd__a211oi_1
*I *245:X O *D sky130_fd_sc_hd__and2b_1
*CAP
1 *262:A 0
2 *246:C1 0.000692544
3 *245:X 0
4 *27:43 0.00236526
5 *27:31 0.00436183
6 *27:4 0.00268911
7 *246:C1 *230:A 0.000353909
8 *246:C1 *245:B 0.000222666
9 frame_done *27:43 1.21955e-05
10 *239:B *27:31 1.94879e-05
11 *246:A1 *246:C1 7.50473e-05
12 *250:CLK *27:31 8.57023e-05
13 *251:CLK *27:31 2.09897e-05
14 *253:A *27:31 0.000113295
15 *254:A *246:C1 0.000265453
16 *254:A *27:31 4.27935e-05
17 *22:8 *246:C1 2.84026e-05
18 *23:8 *246:C1 6.05161e-06
19 *23:8 *27:31 0.000598085
*RES
1 *245:X *27:4 9.3 
2 *27:4 *246:C1 23.3893 
3 *27:4 *27:31 33.5029 
4 *27:31 *27:43 41.3482 
5 *27:43 *262:A 9.3 
*END

*D_NET *28 0.00150668
*CONN
*I *240:A I *D sky130_fd_sc_hd__and3_1
*I *256:X O *D sky130_fd_sc_hd__dlygate4sd3_1
*CAP
1 *240:A 0.000504299
2 *256:X 0.000504299
3 *240:A *233:A 0
4 *240:C *240:A 0.000230475
5 *251:CLK *240:A 5.71472e-05
6 *251:D *240:A 3.18676e-05
7 *252:RESET_B *240:A 0.000142856
8 *24:36 *240:A 3.57315e-05
9 *24:55 *240:A 0
*RES
1 *256:X *240:A 37.6357 
*END

*D_NET *29 0.00237253
*CONN
*I *233:A I *D sky130_fd_sc_hd__nor2_1
*I *257:X O *D sky130_fd_sc_hd__dlygate4sd3_1
*CAP
1 *233:A 0.000638739
2 *257:X 0.000638739
3 *240:A *233:A 0
4 *240:B *233:A 9.91086e-05
5 *240:C *233:A 6.04072e-05
6 *247:RESET_B *233:A 0
7 *251:CLK *233:A 0.000271352
8 *252:D *233:A 0.000229456
9 *13:40 *233:A 0.000382424
10 *24:36 *233:A 5.23057e-05
*RES
1 *257:X *233:A 41.4214 
*END

*D_NET *30 0.000493734
*CONN
*I *242:A I *D sky130_fd_sc_hd__or3b_1
*I *258:X O *D sky130_fd_sc_hd__dlygate4sd3_1
*CAP
1 *242:A 0.000112178
2 *258:X 0.000112178
3 *19:16 *242:A 0.000269378
*RES
1 *258:X *242:A 21.1893 
*END

*D_NET *31 0.00103601
*CONN
*I *247:D I *D sky130_fd_sc_hd__dfrtp_1
*I *243:Y O *D sky130_fd_sc_hd__o21ai_1
*CAP
1 *247:D 0.000314682
2 *243:Y 0.000314682
3 *243:A1 *247:D 1.32552e-05
4 *243:A2 *247:D 0
5 *243:B1 *247:D 0.000144773
6 *248:CLK *247:D 0.000181393
7 *22:16 *247:D 6.7224e-05
*RES
1 *243:Y *247:D 33.1893 
*END

*D_NET *32 0.00126888
*CONN
*I *248:D I *D sky130_fd_sc_hd__dfrtp_1
*I *244:X O *D sky130_fd_sc_hd__and2_1
*CAP
1 *248:D 0.000521625
2 *244:X 0.000521625
3 *243:A2 *248:D 0
4 *246:A2 *248:D 0
5 *248:CLK *248:D 0.000170676
6 *13:14 *248:D 5.49553e-05
*RES
1 *244:X *248:D 37.0286 
*END

*D_NET *33 0.00470175
*CONN
*I *231:B I *D sky130_fd_sc_hd__and2b_1
*I *230:A I *D sky130_fd_sc_hd__inv_2
*I *242:B I *D sky130_fd_sc_hd__or3b_1
*I *245:A_N I *D sky130_fd_sc_hd__and2b_1
*I *232:B I *D sky130_fd_sc_hd__nand2b_1
*I *247:Q O *D sky130_fd_sc_hd__dfrtp_1
*CAP
1 *231:B 0.000252872
2 *230:A 0.000213278
3 *242:B 5.57957e-05
4 *245:A_N 0
5 *232:B 0.000118629
6 *247:Q 0
7 *33:47 0.000466149
8 *33:36 0.000399801
9 *33:23 0.000451801
10 *33:6 0.000226424
11 *232:B *232:A_N 0.000110381
12 *232:B *34:19 8.00806e-05
13 *33:23 *34:19 0.000200585
14 *33:36 *34:19 3.67356e-05
15 *33:36 *34:30 6.51946e-05
16 *233:B *232:B 0.000179527
17 *233:B *33:23 8.25098e-05
18 *243:A1 *232:B 7.43578e-06
19 *243:B1 *230:A 0.000150625
20 *246:C1 *230:A 0.000353909
21 *248:RESET_B *232:B 0
22 *249:D *33:23 7.6494e-05
23 *249:D *33:36 0.000195555
24 *251:CLK *33:23 0
25 *252:CLK *230:A 0.000101545
26 *252:CLK *231:B 0.000308887
27 *19:16 *242:B 5.33005e-05
28 *19:16 *33:36 0.000435157
29 *22:16 *230:A 7.90803e-05
*RES
1 *247:Q *33:6 13.8 
2 *33:6 *232:B 16.8268 
3 *33:6 *33:23 3.51786 
4 *33:23 *245:A_N 13.8 
5 *33:23 *33:36 12.5179 
6 *33:36 *242:B 10.2643 
7 *33:36 *33:47 4.5 
8 *33:47 *230:A 19.4607 
9 *33:47 *231:B 19.0321 
*END

*D_NET *34 0.00251452
*CONN
*I *231:A_N I *D sky130_fd_sc_hd__and2b_1
*I *258:A I *D sky130_fd_sc_hd__dlygate4sd3_1
*I *245:B I *D sky130_fd_sc_hd__and2b_1
*I *232:A_N I *D sky130_fd_sc_hd__nand2b_1
*I *248:Q O *D sky130_fd_sc_hd__dfrtp_1
*CAP
1 *231:A_N 0.000161673
2 *258:A 0
3 *245:B 0.000120801
4 *232:A_N 0.000170324
5 *248:Q 0
6 *34:30 0.000252393
7 *34:19 0.000415875
8 *34:4 0.000374677
9 *232:B *232:A_N 0.000110381
10 *232:B *34:19 8.00806e-05
11 *243:A1 *232:A_N 1.74352e-05
12 *246:C1 *245:B 0.000222666
13 *248:RESET_B *34:19 0
14 *252:CLK *231:A_N 0.00014285
15 *252:D *231:A_N 0
16 *252:D *34:30 0
17 *13:40 *231:A_N 0.00014285
18 *33:23 *34:19 0.000200585
19 *33:36 *34:19 3.67356e-05
20 *33:36 *34:30 6.51946e-05
*RES
1 *248:Q *34:4 9.3 
2 *34:4 *232:A_N 12.6393 
3 *34:4 *34:19 9.17857 
4 *34:19 *245:B 15.9786 
5 *34:19 *34:30 1.94643 
6 *34:30 *258:A 13.8 
7 *34:30 *231:A_N 17.4071 
*END

*D_NET *35 0.00480069
*CONN
*I *237:A2 I *D sky130_fd_sc_hd__a21o_1
*I *235:B I *D sky130_fd_sc_hd__nand2_1
*I *257:A I *D sky130_fd_sc_hd__dlygate4sd3_1
*I *238:B I *D sky130_fd_sc_hd__nand3_1
*I *234:B I *D sky130_fd_sc_hd__or2_1
*I *241:D I *D sky130_fd_sc_hd__and4b_1
*I *249:Q O *D sky130_fd_sc_hd__dfrtp_1
*CAP
1 *237:A2 8.38929e-05
2 *235:B 0
3 *257:A 0.000326865
4 *238:B 0
5 *234:B 0.000340894
6 *241:D 2.23854e-05
7 *249:Q 6.29433e-05
8 *35:49 0.000465213
9 *35:19 0.00042883
10 *35:17 0.000226283
11 *35:15 0.00012015
12 *35:6 0.000121585
13 *234:B *234:A 0.000399841
14 *234:B *36:12 5.52302e-05
15 *234:B *36:23 0.000362531
16 *234:B *36:32 1.02504e-05
17 *234:B *37:10 6.97972e-05
18 *237:A2 *237:A1 0.000181803
19 *237:A2 *241:A_N 1.02504e-05
20 *237:A2 *37:21 2.26424e-05
21 *241:D *237:A1 0
22 *257:A *241:A_N 8.57023e-05
23 *257:A *38:6 9.90431e-05
24 *35:15 *237:A1 5.33005e-05
25 *35:19 *36:32 0.000154932
26 *35:19 *37:10 5.80706e-06
27 *35:19 *37:21 7.20426e-05
28 *35:49 *235:A 0.000166389
29 *35:49 *241:A_N 2.04046e-05
30 *35:49 *36:32 2.24646e-05
31 *35:49 *37:21 4.02462e-05
32 *236:A *237:A2 0.000171289
33 *236:A *35:6 4.33246e-05
34 *236:A *35:15 9.46588e-05
35 *236:B *234:B 0.000353079
36 *236:C *35:49 8.00806e-05
37 *239:B *234:B 0
38 *252:RESET_B *257:A 9.25014e-06
39 *19:16 *35:6 1.72894e-05
*RES
1 *249:Q *35:6 10.5455 
2 *35:6 *241:D 9.72857 
3 *35:6 *35:15 1.05804 
4 *35:15 *35:17 4.5 
5 *35:17 *35:19 2.25 
6 *35:19 *234:B 23.9607 
7 *35:19 *238:B 13.8 
8 *35:17 *35:49 8.14286 
9 *35:49 *257:A 24.3893 
10 *35:49 *235:B 9.3 
11 *35:15 *237:A2 20.8 
*END

*D_NET *36 0.00383576
*CONN
*I *235:A I *D sky130_fd_sc_hd__nand2_1
*I *237:A1 I *D sky130_fd_sc_hd__a21o_1
*I *241:C I *D sky130_fd_sc_hd__and4b_1
*I *238:A I *D sky130_fd_sc_hd__nand3_1
*I *234:A I *D sky130_fd_sc_hd__or2_1
*I *250:Q O *D sky130_fd_sc_hd__dfrtp_1
*CAP
1 *235:A 0.000199201
2 *237:A1 9.71722e-05
3 *241:C 0
4 *238:A 0
5 *234:A 0.000150632
6 *250:Q 0.000211553
7 *36:34 9.71722e-05
8 *36:32 0.000300048
9 *36:23 0.000258101
10 *36:12 0.000519438
11 *235:A *241:A_N 5.71472e-05
12 *237:A1 *237:B1 7.29515e-05
13 *237:A1 *241:B 5.03772e-05
14 *234:B *234:A 0.000399841
15 *234:B *36:12 5.52302e-05
16 *234:B *36:23 0.000362531
17 *234:B *36:32 1.02504e-05
18 *236:A *237:A1 3.41367e-05
19 *236:A *36:23 1.28585e-05
20 *236:A *36:32 6.12067e-05
21 *236:B *36:12 9.47613e-05
22 *237:A2 *237:A1 0.000181803
23 *239:A *36:23 0.000192722
24 *239:B *36:12 0
25 *239:C *234:A 1.95435e-05
26 *241:D *237:A1 0
27 *252:RESET_B *235:A 0
28 *24:55 *235:A 0
29 *24:55 *36:32 0
30 *35:15 *237:A1 5.33005e-05
31 *35:19 *36:32 0.000154932
32 *35:49 *235:A 0.000166389
33 *35:49 *36:32 2.24646e-05
*RES
1 *250:Q *36:12 22.425 
2 *36:12 *234:A 13.1214 
3 *36:12 *36:23 9.48214 
4 *36:23 *238:A 13.8 
5 *36:23 *36:32 2.55357 
6 *36:32 *36:34 4.5 
7 *36:34 *241:C 9.3 
8 *36:34 *237:A1 12.3179 
9 *36:32 *235:A 17.425 
*END

*D_NET *37 0.0014746
*CONN
*I *237:B1 I *D sky130_fd_sc_hd__a21o_1
*I *241:B I *D sky130_fd_sc_hd__and4b_1
*I *238:C I *D sky130_fd_sc_hd__nand3_1
*I *251:Q O *D sky130_fd_sc_hd__dfrtp_1
*CAP
1 *237:B1 5.94624e-05
2 *241:B 3.91484e-05
3 *238:C 0
4 *251:Q 0.000110475
5 *37:21 0.000259308
6 *37:10 0.000271172
7 *37:21 *241:A_N 3.34295e-05
8 *234:B *37:10 6.97972e-05
9 *236:A *237:B1 6.22471e-05
10 *236:C *237:B1 0.000227532
11 *236:C *241:B 5.52238e-05
12 *237:A1 *237:B1 7.29515e-05
13 *237:A1 *241:B 5.03772e-05
14 *237:A2 *37:21 2.26424e-05
15 *239:B *37:10 0
16 *239:B *37:21 0
17 *24:22 *37:10 2.27416e-05
18 *35:19 *37:10 5.80706e-06
19 *35:19 *37:21 7.20426e-05
20 *35:49 *37:21 4.02462e-05
*RES
1 *251:Q *37:10 15.9786 
2 *37:10 *238:C 13.8 
3 *37:10 *37:21 7.66071 
4 *37:21 *241:B 10.2464 
5 *37:21 *237:B1 11.9071 
*END

*D_NET *38 0.00131066
*CONN
*I *241:A_N I *D sky130_fd_sc_hd__and4b_1
*I *256:A I *D sky130_fd_sc_hd__dlygate4sd3_1
*I *252:Q O *D sky130_fd_sc_hd__dfrtp_1
*CAP
1 *241:A_N 0.000260156
2 *256:A 0
3 *252:Q 0.000129212
4 *38:6 0.000389368
5 *235:A *241:A_N 5.71472e-05
6 *236:C *241:A_N 3.92854e-05
7 *237:A2 *241:A_N 1.02504e-05
8 *252:RESET_B *38:6 0.000186662
9 *257:A *241:A_N 8.57023e-05
10 *257:A *38:6 9.90431e-05
11 *35:49 *241:A_N 2.04046e-05
12 *37:21 *241:A_N 3.34295e-05
*RES
1 *252:Q *38:6 12.3 
2 *38:6 *256:A 9.3 
3 *38:6 *241:A_N 23.4429 
*END
