*SPEF "ieee 1481-1999"
*DESIGN "Branch_Metrics"
*DATE "17:58:05 Wednesday January 21, 2026"
*VENDOR "The OpenROAD Project"
*PROGRAM "OpenROAD"
*VERSION "edf00dff99f6c40d67a30c0e22a8191c5d2ed9d6"
*DESIGN_FLOW "NAME_SCOPE LOCAL" "PIN_CAP NONE"
*DIVIDER /
*DELIMITER :
*BUS_DELIMITER []
*T_UNIT 1 NS
*C_UNIT 1 PF
*R_UNIT 1 OHM
*L_UNIT 1 HENRY

*NAME_MAP
*3 bm_00_00[0]
*4 bm_00_00[1]
*5 bm_00_10[0]
*6 bm_00_10[1]
*7 bm_01_00[0]
*8 bm_01_00[1]
*9 bm_01_10[0]
*10 bm_01_10[1]
*11 bm_10_01[0]
*12 bm_10_01[1]
*13 bm_10_11[0]
*14 bm_10_11[1]
*15 bm_11_01[0]
*16 bm_11_01[1]
*17 bm_11_11[0]
*18 bm_11_11[1]
*19 received[0]
*20 received[1]
*21 net1
*22 net10
*23 net11
*24 net12
*25 net13
*26 net14
*27 net15
*28 net16
*29 net17
*30 net18
*31 net2
*32 net3
*33 net4
*34 net5
*35 net6
*36 net7
*37 net8
*38 net9
*39 FILLER_0_15
*40 FILLER_0_27
*41 FILLER_0_29
*42 FILLER_0_3
*43 FILLER_0_41
*44 FILLER_0_53
*45 FILLER_0_57
*46 FILLER_0_61
*47 FILLER_10_15
*48 FILLER_10_27
*49 FILLER_10_29
*50 FILLER_10_3
*51 FILLER_10_41
*52 FILLER_10_53
*53 FILLER_10_68
*54 FILLER_11_15
*55 FILLER_11_27
*56 FILLER_11_3
*57 FILLER_11_39
*58 FILLER_11_51
*59 FILLER_11_55
*60 FILLER_11_57
*61 FILLER_11_68
*62 FILLER_12_15
*63 FILLER_12_27
*64 FILLER_12_29
*65 FILLER_12_3
*66 FILLER_12_41
*67 FILLER_12_53
*68 FILLER_12_68
*69 FILLER_13_15
*70 FILLER_13_27
*71 FILLER_13_3
*72 FILLER_13_39
*73 FILLER_13_51
*74 FILLER_13_55
*75 FILLER_13_57
*76 FILLER_13_65
*77 FILLER_14_15
*78 FILLER_14_27
*79 FILLER_14_29
*80 FILLER_14_3
*81 FILLER_14_41
*82 FILLER_14_53
*83 FILLER_14_65
*84 FILLER_14_69
*85 FILLER_15_15
*86 FILLER_15_27
*87 FILLER_15_3
*88 FILLER_15_39
*89 FILLER_15_51
*90 FILLER_15_55
*91 FILLER_15_57
*92 FILLER_15_65
*93 FILLER_16_15
*94 FILLER_16_27
*95 FILLER_16_29
*96 FILLER_16_3
*97 FILLER_16_41
*98 FILLER_16_53
*99 FILLER_16_65
*100 FILLER_16_69
*101 FILLER_17_15
*102 FILLER_17_27
*103 FILLER_17_3
*104 FILLER_17_39
*105 FILLER_17_51
*106 FILLER_17_55
*107 FILLER_17_57
*108 FILLER_17_67
*109 FILLER_18_15
*110 FILLER_18_27
*111 FILLER_18_29
*112 FILLER_18_3
*113 FILLER_18_41
*114 FILLER_18_53
*115 FILLER_18_68
*116 FILLER_19_15
*117 FILLER_19_27
*118 FILLER_19_3
*119 FILLER_19_39
*120 FILLER_19_51
*121 FILLER_19_55
*122 FILLER_19_57
*123 FILLER_1_15
*124 FILLER_1_27
*125 FILLER_1_3
*126 FILLER_1_39
*127 FILLER_1_51
*128 FILLER_1_55
*129 FILLER_1_57
*130 FILLER_1_68
*131 FILLER_20_15
*132 FILLER_20_27
*133 FILLER_20_29
*134 FILLER_20_3
*135 FILLER_20_41
*136 FILLER_20_53
*137 FILLER_20_69
*138 FILLER_21_15
*139 FILLER_21_27
*140 FILLER_21_3
*141 FILLER_21_39
*142 FILLER_21_51
*143 FILLER_21_55
*144 FILLER_21_57
*145 FILLER_21_69
*146 FILLER_22_15
*147 FILLER_22_27
*148 FILLER_22_29
*149 FILLER_22_3
*150 FILLER_22_41
*151 FILLER_22_53
*152 FILLER_22_61
*153 FILLER_23_19
*154 FILLER_23_31
*155 FILLER_23_43
*156 FILLER_23_55
*157 FILLER_23_57
*158 FILLER_23_68
*159 FILLER_23_7
*160 FILLER_24_15
*161 FILLER_24_27
*162 FILLER_24_29
*163 FILLER_24_3
*164 FILLER_24_41
*165 FILLER_24_53
*166 FILLER_24_61
*167 FILLER_25_15
*168 FILLER_25_27
*169 FILLER_25_3
*170 FILLER_25_39
*171 FILLER_25_51
*172 FILLER_25_55
*173 FILLER_25_57
*174 FILLER_25_69
*175 FILLER_26_15
*176 FILLER_26_27
*177 FILLER_26_29
*178 FILLER_26_3
*179 FILLER_26_41
*180 FILLER_26_53
*181 FILLER_26_65
*182 FILLER_27_15
*183 FILLER_27_27
*184 FILLER_27_29
*185 FILLER_27_3
*186 FILLER_27_41
*187 FILLER_27_53
*188 FILLER_27_57
*189 FILLER_27_61
*190 FILLER_2_15
*191 FILLER_2_27
*192 FILLER_2_29
*193 FILLER_2_3
*194 FILLER_2_41
*195 FILLER_2_53
*196 FILLER_2_65
*197 FILLER_3_15
*198 FILLER_3_27
*199 FILLER_3_3
*200 FILLER_3_39
*201 FILLER_3_51
*202 FILLER_3_55
*203 FILLER_3_57
*204 FILLER_3_69
*205 FILLER_4_15
*206 FILLER_4_27
*207 FILLER_4_29
*208 FILLER_4_3
*209 FILLER_4_41
*210 FILLER_4_53
*211 FILLER_4_65
*212 FILLER_5_19
*213 FILLER_5_31
*214 FILLER_5_43
*215 FILLER_5_55
*216 FILLER_5_57
*217 FILLER_5_69
*218 FILLER_5_7
*219 FILLER_6_15
*220 FILLER_6_27
*221 FILLER_6_29
*222 FILLER_6_3
*223 FILLER_6_41
*224 FILLER_6_53
*225 FILLER_6_61
*226 FILLER_7_15
*227 FILLER_7_27
*228 FILLER_7_3
*229 FILLER_7_39
*230 FILLER_7_51
*231 FILLER_7_55
*232 FILLER_7_57
*233 FILLER_7_69
*234 FILLER_8_15
*235 FILLER_8_27
*236 FILLER_8_29
*237 FILLER_8_3
*238 FILLER_8_41
*239 FILLER_8_53
*240 FILLER_8_61
*241 FILLER_9_15
*242 FILLER_9_27
*243 FILLER_9_3
*244 FILLER_9_39
*245 FILLER_9_51
*246 FILLER_9_55
*247 FILLER_9_57
*248 PHY_EDGE_ROW_0_Left_28
*249 PHY_EDGE_ROW_0_Right_0
*250 PHY_EDGE_ROW_10_Left_38
*251 PHY_EDGE_ROW_10_Right_10
*252 PHY_EDGE_ROW_11_Left_39
*253 PHY_EDGE_ROW_11_Right_11
*254 PHY_EDGE_ROW_12_Left_40
*255 PHY_EDGE_ROW_12_Right_12
*256 PHY_EDGE_ROW_13_Left_41
*257 PHY_EDGE_ROW_13_Right_13
*258 PHY_EDGE_ROW_14_Left_42
*259 PHY_EDGE_ROW_14_Right_14
*260 PHY_EDGE_ROW_15_Left_43
*261 PHY_EDGE_ROW_15_Right_15
*262 PHY_EDGE_ROW_16_Left_44
*263 PHY_EDGE_ROW_16_Right_16
*264 PHY_EDGE_ROW_17_Left_45
*265 PHY_EDGE_ROW_17_Right_17
*266 PHY_EDGE_ROW_18_Left_46
*267 PHY_EDGE_ROW_18_Right_18
*268 PHY_EDGE_ROW_19_Left_47
*269 PHY_EDGE_ROW_19_Right_19
*270 PHY_EDGE_ROW_1_Left_29
*271 PHY_EDGE_ROW_1_Right_1
*272 PHY_EDGE_ROW_20_Left_48
*273 PHY_EDGE_ROW_20_Right_20
*274 PHY_EDGE_ROW_21_Left_49
*275 PHY_EDGE_ROW_21_Right_21
*276 PHY_EDGE_ROW_22_Left_50
*277 PHY_EDGE_ROW_22_Right_22
*278 PHY_EDGE_ROW_23_Left_51
*279 PHY_EDGE_ROW_23_Right_23
*280 PHY_EDGE_ROW_24_Left_52
*281 PHY_EDGE_ROW_24_Right_24
*282 PHY_EDGE_ROW_25_Left_53
*283 PHY_EDGE_ROW_25_Right_25
*284 PHY_EDGE_ROW_26_Left_54
*285 PHY_EDGE_ROW_26_Right_26
*286 PHY_EDGE_ROW_27_Left_55
*287 PHY_EDGE_ROW_27_Right_27
*288 PHY_EDGE_ROW_2_Left_30
*289 PHY_EDGE_ROW_2_Right_2
*290 PHY_EDGE_ROW_3_Left_31
*291 PHY_EDGE_ROW_3_Right_3
*292 PHY_EDGE_ROW_4_Left_32
*293 PHY_EDGE_ROW_4_Right_4
*294 PHY_EDGE_ROW_5_Left_33
*295 PHY_EDGE_ROW_5_Right_5
*296 PHY_EDGE_ROW_6_Left_34
*297 PHY_EDGE_ROW_6_Right_6
*298 PHY_EDGE_ROW_7_Left_35
*299 PHY_EDGE_ROW_7_Right_7
*300 PHY_EDGE_ROW_8_Left_36
*301 PHY_EDGE_ROW_8_Right_8
*302 PHY_EDGE_ROW_9_Left_37
*303 PHY_EDGE_ROW_9_Right_9
*304 TAP_TAPCELL_ROW_0_56
*305 TAP_TAPCELL_ROW_0_57
*306 TAP_TAPCELL_ROW_10_67
*307 TAP_TAPCELL_ROW_11_68
*308 TAP_TAPCELL_ROW_12_69
*309 TAP_TAPCELL_ROW_13_70
*310 TAP_TAPCELL_ROW_14_71
*311 TAP_TAPCELL_ROW_15_72
*312 TAP_TAPCELL_ROW_16_73
*313 TAP_TAPCELL_ROW_17_74
*314 TAP_TAPCELL_ROW_18_75
*315 TAP_TAPCELL_ROW_19_76
*316 TAP_TAPCELL_ROW_1_58
*317 TAP_TAPCELL_ROW_20_77
*318 TAP_TAPCELL_ROW_21_78
*319 TAP_TAPCELL_ROW_22_79
*320 TAP_TAPCELL_ROW_23_80
*321 TAP_TAPCELL_ROW_24_81
*322 TAP_TAPCELL_ROW_25_82
*323 TAP_TAPCELL_ROW_26_83
*324 TAP_TAPCELL_ROW_27_84
*325 TAP_TAPCELL_ROW_27_85
*326 TAP_TAPCELL_ROW_2_59
*327 TAP_TAPCELL_ROW_3_60
*328 TAP_TAPCELL_ROW_4_61
*329 TAP_TAPCELL_ROW_5_62
*330 TAP_TAPCELL_ROW_6_63
*331 TAP_TAPCELL_ROW_7_64
*332 TAP_TAPCELL_ROW_8_65
*333 TAP_TAPCELL_ROW_9_66
*334 _00_
*335 _01_
*336 _02_
*337 _03_
*338 _04_
*339 _05_
*340 _06_
*341 _07_
*342 _08_
*343 _09_
*344 _10_
*345 _11_
*346 _12_
*347 _13_
*348 _14_
*349 _15_
*350 input1
*351 input2
*352 output10
*353 output11
*354 output12
*355 output13
*356 output14
*357 output15
*358 output16
*359 output17
*360 output18
*361 output3
*362 output4
*363 output5
*364 output6
*365 output7
*366 output8
*367 output9

*PORTS
bm_00_00[0] O
bm_00_00[1] O
bm_00_10[0] O
bm_00_10[1] O
bm_01_00[0] O
bm_01_00[1] O
bm_01_10[0] O
bm_01_10[1] O
bm_10_01[0] O
bm_10_01[1] O
bm_10_11[0] O
bm_10_11[1] O
bm_11_01[0] O
bm_11_01[1] O
bm_11_11[0] O
bm_11_11[1] O
received[0] I
received[1] I

*D_NET *3 0.00123934
*CONN
*P bm_00_00[0] O
*I *361:X O *D sky130_fd_sc_hd__buf_2
*CAP
1 bm_00_00[0] 0.000234738
2 *361:X 0.00038493
3 *3:8 0.000619668
4 *3:8 bm_00_00[1] 0
*RES
1 *361:X *3:8 46.0682 
2 *3:8 bm_00_00[0] 8.9296 
*END

*D_NET *4 0.000947149
*CONN
*P bm_00_00[1] O
*I *362:X O *D sky130_fd_sc_hd__buf_2
*CAP
1 bm_00_00[1] 0.000473575
2 *362:X 0.000473575
3 bm_00_00[1] bm_00_10[0] 0
4 *3:8 bm_00_00[1] 0
*RES
1 *362:X bm_00_00[1] 49.0886 
*END

*D_NET *5 0.000684551
*CONN
*P bm_00_10[0] O
*I *363:X O *D sky130_fd_sc_hd__buf_2
*CAP
1 bm_00_10[0] 0.000304965
2 *363:X 0.000304965
3 bm_00_10[0] bm_00_10[1] 0
4 bm_00_10[0] *34:8 7.46212e-05
5 bm_00_00[1] bm_00_10[0] 0
*RES
1 *363:X bm_00_10[0] 47.955 
*END

*D_NET *6 0.000557683
*CONN
*P bm_00_10[1] O
*I *364:X O *D sky130_fd_sc_hd__buf_2
*CAP
1 bm_00_10[1] 0.000274531
2 *364:X 0.000274531
3 bm_00_10[1] bm_01_00[0] 0
4 bm_00_10[1] *33:14 8.62073e-06
5 bm_00_10[0] bm_00_10[1] 0
*RES
1 *364:X bm_00_10[1] 47.2507 
*END

*D_NET *7 0.000582525
*CONN
*P bm_01_00[0] O
*I *365:X O *D sky130_fd_sc_hd__buf_2
*CAP
1 bm_01_00[0] 0.000283419
2 *365:X 0.000283419
3 bm_01_00[0] *33:14 1.56862e-05
4 bm_00_10[1] bm_01_00[0] 0
*RES
1 *365:X bm_01_00[0] 47.6028 
*END

*D_NET *8 0.000703529
*CONN
*P bm_01_00[1] O
*I *366:X O *D sky130_fd_sc_hd__buf_2
*CAP
1 bm_01_00[1] 0.00029761
2 *366:X 0.00029761
3 bm_01_00[1] bm_01_10[0] 0
4 bm_01_00[1] *33:14 0.000108309
*RES
1 *366:X bm_01_00[1] 48.3071 
*END

*D_NET *9 0.001415
*CONN
*P bm_01_10[0] O
*I *367:X O *D sky130_fd_sc_hd__buf_2
*CAP
1 bm_01_10[0] 0.000404812
2 *367:X 0.000165552
3 *9:12 0.000570364
4 bm_01_10[0] bm_01_10[1] 0
5 *9:12 *367:A 2.32004e-05
6 *9:12 *21:29 0.000100185
7 *9:12 *21:40 5.3304e-05
8 *9:12 *38:12 9.75795e-05
9 bm_01_00[1] bm_01_10[0] 0
*RES
1 *367:X *9:12 49.4282 
2 *9:12 bm_01_10[0] 1.27307 
*END

*D_NET *10 0.000571445
*CONN
*P bm_01_10[1] O
*I *352:X O *D sky130_fd_sc_hd__buf_2
*CAP
1 bm_01_10[1] 0.000268439
2 *352:X 0.000268439
3 bm_01_10[1] bm_10_01[0] 0
4 bm_01_10[1] *21:40 9.86551e-06
5 bm_01_10[1] *22:8 2.47015e-05
6 bm_01_10[0] bm_01_10[1] 0
*RES
1 *352:X bm_01_10[1] 47.2507 
*END

*D_NET *11 0.00059498
*CONN
*P bm_10_01[0] O
*I *353:X O *D sky130_fd_sc_hd__buf_2
*CAP
1 bm_10_01[0] 0.000279535
2 *353:X 0.000279535
3 bm_10_01[0] bm_10_01[1] 0
4 bm_10_01[0] *21:40 1.05658e-05
5 bm_10_01[0] *31:44 2.5343e-05
6 bm_01_10[1] bm_10_01[0] 0
*RES
1 *353:X bm_10_01[0] 47.2507 
*END

*D_NET *12 0.00136162
*CONN
*P bm_10_01[1] O
*I *354:X O *D sky130_fd_sc_hd__buf_2
*CAP
1 bm_10_01[1] 0.000289046
2 *354:X 0.000113014
3 *12:8 0.00040206
4 bm_10_01[1] bm_10_11[0] 0
5 *12:8 *23:17 0.000131436
6 *12:8 *30:18 8.62876e-05
7 *12:8 *31:23 0.000131744
8 *12:8 *31:29 0.000208037
9 bm_10_01[0] bm_10_01[1] 0
*RES
1 *354:X *12:8 42.5468 
2 *12:8 bm_10_01[1] 8.9296 
*END

*D_NET *13 0.00122914
*CONN
*P bm_10_11[0] O
*I *355:X O *D sky130_fd_sc_hd__buf_2
*CAP
1 bm_10_11[0] 0.00060478
2 *355:X 0.00060478
3 bm_10_11[0] bm_10_11[1] 0
4 bm_10_11[0] *25:8 1.95789e-05
5 bm_10_01[1] bm_10_11[0] 0
*RES
1 *355:X bm_10_11[0] 48.6419 
*END

*D_NET *14 0.000573083
*CONN
*P bm_10_11[1] O
*I *356:X O *D sky130_fd_sc_hd__buf_2
*CAP
1 bm_10_11[1] 0.000274191
2 *356:X 0.000274191
3 bm_10_11[1] bm_11_01[0] 0
4 bm_10_11[1] *30:18 2.47015e-05
5 bm_10_11[0] bm_10_11[1] 0
*RES
1 *356:X bm_10_11[1] 47.2507 
*END

*D_NET *15 0.000616082
*CONN
*P bm_11_01[0] O
*I *357:X O *D sky130_fd_sc_hd__buf_2
*CAP
1 bm_11_01[0] 0.000281472
2 *357:X 0.000281472
3 bm_11_01[0] bm_11_01[1] 0
4 bm_11_01[0] *30:18 5.31385e-05
5 bm_10_11[1] bm_11_01[0] 0
*RES
1 *357:X bm_11_01[0] 47.6028 
*END

*D_NET *16 0.000784475
*CONN
*P bm_11_01[1] O
*I *358:X O *D sky130_fd_sc_hd__buf_2
*CAP
1 bm_11_01[1] 0.000306819
2 *358:X 0.000306819
3 bm_11_01[1] bm_11_11[0] 0
4 bm_11_01[1] bm_11_11[1] 0.00012758
5 bm_11_01[1] *28:12 4.32584e-05
6 bm_11_01[0] bm_11_01[1] 0
*RES
1 *358:X bm_11_01[1] 48.6592 
*END

*D_NET *17 0.00104527
*CONN
*P bm_11_11[0] O
*I *359:X O *D sky130_fd_sc_hd__buf_2
*CAP
1 bm_11_11[0] 0.000358128
2 *359:X 0.000164505
3 *17:10 0.000522634
4 bm_11_11[0] bm_11_11[1] 0
5 *17:10 bm_11_11[1] 0
6 bm_11_01[1] bm_11_11[0] 0
*RES
1 *359:X *17:10 49.1382 
2 *17:10 bm_11_11[0] 1.27307 
*END

*D_NET *18 0.00201209
*CONN
*P bm_11_11[1] O
*I *360:X O *D sky130_fd_sc_hd__buf_2
*CAP
1 bm_11_11[1] 0.000874412
2 *360:X 5.12892e-05
3 *18:8 0.000925701
4 bm_11_11[1] *28:12 0
5 bm_11_11[1] *30:18 3.31127e-05
6 bm_11_01[1] bm_11_11[1] 0.00012758
7 bm_11_11[0] bm_11_11[1] 0
8 *17:10 bm_11_11[1] 0
*RES
1 *360:X *18:8 38.6214 
2 *18:8 bm_11_11[1] 22.8984 
*END

*D_NET *19 0.000657058
*CONN
*P received[0] I
*I *350:A I *D sky130_fd_sc_hd__clkbuf_2
*CAP
1 received[0] 0.000328529
2 *350:A 0
3 *19:13 0.000328529
*RES
1 received[0] *19:13 28.1002 
2 *19:13 *350:A 23 
*END

*D_NET *20 0.00059086
*CONN
*P received[1] I
*I *351:A I *D sky130_fd_sc_hd__clkbuf_2
*CAP
1 received[1] 0.00029543
2 *351:A 0
3 *20:13 0.00029543
*RES
1 received[1] *20:13 27.3959 
2 *20:13 *351:A 23 
*END

*D_NET *21 0.0104195
*CONN
*I *335:A I *D sky130_fd_sc_hd__nor2_1
*I *338:A_N I *D sky130_fd_sc_hd__and2b_1
*I *339:B I *D sky130_fd_sc_hd__and2b_1
*I *337:A I *D sky130_fd_sc_hd__xnor2_1
*I *334:A I *D sky130_fd_sc_hd__and2_1
*I *336:A I *D sky130_fd_sc_hd__xor2_1
*I *350:X O *D sky130_fd_sc_hd__clkbuf_2
*CAP
1 *335:A 0.000195575
2 *338:A_N 0.000305643
3 *339:B 0
4 *337:A 5.1045e-05
5 *334:A 0
6 *336:A 0
7 *350:X 0.00117783
8 *21:55 0.000435235
9 *21:44 0.000337254
10 *21:40 0.00111394
11 *21:29 0.0011703
12 *21:23 0.00046612
13 *21:14 0.00101791
14 *21:6 0.00213818
15 *335:A *335:B 5.3304e-05
16 *335:A *336:B 0.00012612
17 *337:A *337:B 5.67058e-05
18 *338:A_N *345:A 4.99867e-05
19 *338:A_N *349:A 1.37349e-05
20 *338:A_N *354:A 7.03766e-05
21 *338:A_N *23:17 7.0647e-05
22 *338:A_N *23:34 7.29306e-05
23 *338:A_N *25:8 0.000112614
24 *338:A_N *31:23 6.15432e-05
25 *21:23 *336:B 2.46468e-05
26 *21:29 *343:A 0.000169683
27 *21:29 *31:48 2.65002e-05
28 *21:29 *38:12 1.86268e-05
29 *21:40 *334:B 5.3304e-05
30 *21:40 *344:A 7.41334e-05
31 *21:40 *367:A 5.50106e-05
32 *21:40 *22:8 4.75103e-05
33 *21:40 *31:29 3.33082e-05
34 *21:40 *31:44 0.000262942
35 *21:44 *337:B 0.000126114
36 *21:44 *31:29 9.67842e-05
37 *21:55 *349:A 3.0647e-05
38 *21:55 *23:17 0.000129412
39 bm_01_10[1] *21:40 9.86551e-06
40 bm_10_01[0] *21:40 1.05658e-05
41 *9:12 *21:29 0.000100185
42 *9:12 *21:40 5.3304e-05
*RES
1 *350:X *21:6 42.6786 
2 *21:6 *21:14 48.3529 
3 *21:14 *336:A 23 
4 *21:14 *21:23 1.11857 
5 *21:23 *21:29 35.075 
6 *21:29 *334:A 23 
7 *21:29 *21:40 35.88 
8 *21:40 *21:44 18.0036 
9 *21:44 *337:A 24.0979 
10 *21:44 *21:55 18.3143 
11 *21:55 *339:B 38 
12 *21:55 *338:A_N 44.7736 
13 *21:23 *335:A 26.5007 
*END

*D_NET *22 0.000469291
*CONN
*I *352:A I *D sky130_fd_sc_hd__buf_2
*I *344:X O *D sky130_fd_sc_hd__clkbuf_1
*CAP
1 *352:A 5.145e-05
2 *344:X 6.22525e-05
3 *22:8 0.000113703
4 *22:8 *31:44 0.000169674
5 bm_01_10[1] *22:8 2.47015e-05
6 *21:40 *22:8 4.75103e-05
*RES
1 *344:X *22:8 40.2579 
2 *22:8 *352:A 38.6214 
*END

*D_NET *23 0.00448888
*CONN
*I *346:A I *D sky130_fd_sc_hd__clkbuf_1
*I *348:A I *D sky130_fd_sc_hd__clkbuf_1
*I *345:A I *D sky130_fd_sc_hd__clkbuf_1
*I *353:A I *D sky130_fd_sc_hd__buf_2
*I *337:Y O *D sky130_fd_sc_hd__xnor2_1
*CAP
1 *346:A 0
2 *348:A 0
3 *345:A 4.55521e-05
4 *353:A 0.000178011
5 *337:Y 0
6 *23:44 0.000205676
7 *23:34 0.000578767
8 *23:17 0.000596711
9 *23:6 0.000356078
10 *353:A *31:44 0.000387957
11 *23:17 *30:18 0.00012733
12 *23:17 *31:29 7.31043e-06
13 *23:17 *31:44 3.70094e-05
14 *23:34 *25:8 7.75329e-06
15 *23:34 *27:10 6.17437e-06
16 *23:34 *28:12 0.000169674
17 *23:34 *30:18 0.000898162
18 *23:34 *31:12 0.000230884
19 *23:44 *28:12 0.000195248
20 *23:44 *31:8 6.17437e-06
21 *338:A_N *345:A 4.99867e-05
22 *338:A_N *23:17 7.0647e-05
23 *338:A_N *23:34 7.29306e-05
24 *12:8 *23:17 0.000131436
25 *21:55 *23:17 0.000129412
*RES
1 *337:Y *23:6 38 
2 *23:6 *353:A 43.075 
3 *23:6 *23:17 5.95536 
4 *23:17 *345:A 39.2946 
5 *23:17 *23:34 27.5632 
6 *23:34 *23:44 33.8529 
7 *23:44 *348:A 23 
8 *23:34 *346:A 23 
*END

*D_NET *24 0.000931332
*CONN
*I *354:A I *D sky130_fd_sc_hd__buf_2
*I *349:A I *D sky130_fd_sc_hd__clkbuf_1
*I *339:X O *D sky130_fd_sc_hd__and2b_1
*CAP
1 *354:A 0.000259703
2 *349:A 0.000133896
3 *339:X 0
4 *24:6 0.000393599
5 *349:A *30:12 2.93747e-05
6 *338:A_N *349:A 1.37349e-05
7 *338:A_N *354:A 7.03766e-05
8 *21:55 *349:A 3.0647e-05
*RES
1 *339:X *24:6 38 
2 *24:6 *349:A 40.7757 
3 *24:6 *354:A 42.4536 
*END

*D_NET *25 0.000388177
*CONN
*I *355:A I *D sky130_fd_sc_hd__buf_2
*I *345:X O *D sky130_fd_sc_hd__clkbuf_1
*CAP
1 *355:A 4.24511e-05
2 *345:X 8.16639e-05
3 *25:8 0.000124115
4 bm_10_11[0] *25:8 1.95789e-05
5 *338:A_N *25:8 0.000112614
6 *23:34 *25:8 7.75329e-06
*RES
1 *345:X *25:8 39.9057 
2 *25:8 *355:A 38.6214 
*END

*D_NET *26 0.00094165
*CONN
*I *356:A I *D sky130_fd_sc_hd__buf_2
*I *347:A I *D sky130_fd_sc_hd__clkbuf_1
*I *338:X O *D sky130_fd_sc_hd__and2b_1
*CAP
1 *356:A 0.000116512
2 *347:A 0
3 *338:X 0.000175348
4 *26:10 0.000116512
5 *26:8 0.000175348
6 *26:8 *31:12 0.00035793
*RES
1 *338:X *26:8 42.7229 
2 *26:8 *26:10 15 
3 *26:10 *347:A 23 
4 *26:10 *356:A 24.5743 
*END

*D_NET *27 0.00050471
*CONN
*I *357:A I *D sky130_fd_sc_hd__buf_2
*I *346:X O *D sky130_fd_sc_hd__clkbuf_1
*CAP
1 *357:A 0
2 *346:X 0.000107389
3 *27:10 0.000107389
4 *27:10 *28:12 0.000141879
5 *27:10 *30:18 0.000141879
6 *23:34 *27:10 6.17437e-06
*RES
1 *346:X *27:10 40.5271 
2 *27:10 *357:A 38 
*END

*D_NET *28 0.00205127
*CONN
*I *358:A I *D sky130_fd_sc_hd__buf_2
*I *347:X O *D sky130_fd_sc_hd__clkbuf_1
*CAP
1 *358:A 0
2 *347:X 0
3 *28:12 0.000418209
4 *28:6 0.000418209
5 *28:12 *29:8 0.000307223
6 *28:12 *30:18 0.000243484
7 *28:12 *31:12 0.000114083
8 bm_11_01[1] *28:12 4.32584e-05
9 bm_11_11[1] *28:12 0
10 *23:34 *28:12 0.000169674
11 *23:44 *28:12 0.000195248
12 *27:10 *28:12 0.000141879
*RES
1 *347:X *28:6 38 
2 *28:6 *28:12 29.1479 
3 *28:12 *358:A 23 
*END

*D_NET *29 0.00100736
*CONN
*I *359:A I *D sky130_fd_sc_hd__buf_2
*I *348:X O *D sky130_fd_sc_hd__clkbuf_1
*CAP
1 *359:A 4.24511e-05
2 *348:X 0.000307617
3 *29:8 0.000350068
4 *28:12 *29:8 0.000307223
*RES
1 *348:X *29:8 45.8921 
2 *29:8 *359:A 38.6214 
*END

*D_NET *30 0.00387266
*CONN
*I *360:A I *D sky130_fd_sc_hd__buf_2
*I *349:X O *D sky130_fd_sc_hd__clkbuf_1
*CAP
1 *360:A 0
2 *349:X 0.000260698
3 *30:18 0.000774144
4 *30:12 0.00103484
5 *30:12 *339:A_N 7.53384e-06
6 *30:18 *31:23 0.000157971
7 bm_10_11[1] *30:18 2.47015e-05
8 bm_11_01[0] *30:18 5.31385e-05
9 bm_11_11[1] *30:18 3.31127e-05
10 *349:A *30:12 2.93747e-05
11 *12:8 *30:18 8.62876e-05
12 *23:17 *30:18 0.00012733
13 *23:34 *30:18 0.000898162
14 *27:10 *30:18 0.000141879
15 *28:12 *30:18 0.000243484
*RES
1 *349:X *30:12 41.6457 
2 *30:12 *30:18 37.2471 
3 *30:18 *360:A 23 
*END

*D_NET *31 0.0108016
*CONN
*I *339:A_N I *D sky130_fd_sc_hd__and2b_1
*I *334:B I *D sky130_fd_sc_hd__and2_1
*I *335:B I *D sky130_fd_sc_hd__nor2_1
*I *336:B I *D sky130_fd_sc_hd__xor2_1
*I *337:B I *D sky130_fd_sc_hd__xnor2_1
*I *338:B I *D sky130_fd_sc_hd__and2b_1
*I *351:X O *D sky130_fd_sc_hd__clkbuf_2
*CAP
1 *339:A_N 7.89404e-05
2 *334:B 3.80122e-05
3 *335:B 2.10134e-05
4 *336:B 6.11504e-05
5 *337:B 9.09436e-05
6 *338:B 0
7 *351:X 0
8 *31:48 0.000248796
9 *31:44 0.00081655
10 *31:29 0.000882934
11 *31:23 0.000676646
12 *31:12 0.000647811
13 *31:8 0.00185833
14 *31:4 0.00162814
15 *335:B *35:12 2.18409e-05
16 *336:B *35:12 7.73389e-05
17 *31:44 *344:A 0.000195248
18 *31:44 *38:12 1.29773e-05
19 *31:48 *343:A 9.39159e-05
20 *31:48 *344:A 5.01986e-05
21 *31:48 *33:14 0.000375078
22 *31:48 *38:12 0.000162813
23 bm_10_01[0] *31:44 2.5343e-05
24 *335:A *335:B 5.3304e-05
25 *335:A *336:B 0.00012612
26 *337:A *337:B 5.67058e-05
27 *338:A_N *31:23 6.15432e-05
28 *353:A *31:44 0.000387957
29 *12:8 *31:23 0.000131744
30 *12:8 *31:29 0.000208037
31 *21:23 *336:B 2.46468e-05
32 *21:29 *31:48 2.65002e-05
33 *21:40 *334:B 5.3304e-05
34 *21:40 *31:29 3.33082e-05
35 *21:40 *31:44 0.000262942
36 *21:44 *337:B 0.000126114
37 *21:44 *31:29 9.67842e-05
38 *22:8 *31:44 0.000169674
39 *23:17 *31:29 7.31043e-06
40 *23:17 *31:44 3.70094e-05
41 *23:34 *31:12 0.000230884
42 *23:44 *31:8 6.17437e-06
43 *26:8 *31:12 0.00035793
44 *28:12 *31:12 0.000114083
45 *30:12 *339:A_N 7.53384e-06
46 *30:18 *31:23 0.000157971
*RES
1 *351:X *31:4 23 
2 *31:4 *31:8 42.7779 
3 *31:8 *31:12 22.54 
4 *31:12 *338:B 23 
5 *31:12 *31:23 23.6586 
6 *31:23 *31:29 19.4121 
7 *31:29 *337:B 25.0507 
8 *31:29 *31:44 32.4621 
9 *31:44 *31:48 20.7793 
10 *31:48 *336:B 25.0714 
11 *31:48 *335:B 23.6214 
12 *31:44 *334:B 38.6214 
13 *31:23 *339:A_N 39.0979 
*END

*D_NET *32 0.00562312
*CONN
*I *343:A I *D sky130_fd_sc_hd__clkbuf_1
*I *341:A I *D sky130_fd_sc_hd__clkbuf_1
*I *361:A I *D sky130_fd_sc_hd__buf_2
*I *340:A I *D sky130_fd_sc_hd__clkbuf_1
*I *336:X O *D sky130_fd_sc_hd__xor2_1
*CAP
1 *343:A 0.000286274
2 *341:A 5.145e-05
3 *361:A 0
4 *340:A 0
5 *336:X 6.93947e-05
6 *32:29 0.000162783
7 *32:16 0.000618127
8 *32:10 0.000707226
9 *32:8 0.000556101
10 *343:A *33:14 2.36844e-05
11 *32:8 *35:12 9.84851e-05
12 *32:10 *33:14 0.000442117
13 *32:10 *35:12 0.000171796
14 *32:10 *35:18 0.000428418
15 *32:16 *33:14 0.00105391
16 *32:16 *35:18 0.000436699
17 *32:29 *33:14 0.000253061
18 *21:29 *343:A 0.000169683
19 *31:48 *343:A 9.39159e-05
*RES
1 *336:X *32:8 39.0979 
2 *32:8 *32:10 7.89214 
3 *32:10 *32:16 29.5 
4 *32:16 *340:A 23 
5 *32:16 *32:29 33.9357 
6 *32:29 *361:A 23 
7 *32:10 *341:A 38.6214 
8 *32:8 *343:A 43.2407 
*END

*D_NET *33 0.00553879
*CONN
*I *344:A I *D sky130_fd_sc_hd__clkbuf_1
*I *362:A I *D sky130_fd_sc_hd__buf_2
*I *334:X O *D sky130_fd_sc_hd__and2_1
*CAP
1 *344:A 0.000183379
2 *362:A 0
3 *334:X 0
4 *33:14 0.00124957
5 *33:6 0.00143295
6 *33:14 *34:8 7.28526e-05
7 bm_00_10[1] *33:14 8.62073e-06
8 bm_01_00[0] *33:14 1.56862e-05
9 bm_01_00[1] *33:14 0.000108309
10 *343:A *33:14 2.36844e-05
11 *21:40 *344:A 7.41334e-05
12 *31:44 *344:A 0.000195248
13 *31:48 *344:A 5.01986e-05
14 *31:48 *33:14 0.000375078
15 *32:10 *33:14 0.000442117
16 *32:16 *33:14 0.00105391
17 *32:29 *33:14 0.000253061
*RES
1 *334:X *33:6 38 
2 *33:6 *33:14 47.0243 
3 *33:14 *362:A 23 
4 *33:6 *344:A 42.4121 
*END

*D_NET *34 0.000361689
*CONN
*I *363:A I *D sky130_fd_sc_hd__buf_2
*I *340:X O *D sky130_fd_sc_hd__clkbuf_1
*CAP
1 *363:A 4.24511e-05
2 *340:X 6.46566e-05
3 *34:8 0.000107108
4 bm_00_10[0] *34:8 7.46212e-05
5 *33:14 *34:8 7.28526e-05
*RES
1 *340:X *34:8 39.9057 
2 *34:8 *363:A 38.6214 
*END

*D_NET *35 0.00266333
*CONN
*I *342:A I *D sky130_fd_sc_hd__clkbuf_1
*I *364:A I *D sky130_fd_sc_hd__buf_2
*I *335:Y O *D sky130_fd_sc_hd__nor2_1
*CAP
1 *342:A 0
2 *364:A 0
3 *335:Y 0.000197042
4 *35:18 0.000517332
5 *35:12 0.000714374
6 *335:B *35:12 2.18409e-05
7 *336:B *35:12 7.73389e-05
8 *32:8 *35:12 9.84851e-05
9 *32:10 *35:12 0.000171796
10 *32:10 *35:18 0.000428418
11 *32:16 *35:18 0.000436699
*RES
1 *335:Y *35:12 42.8057 
2 *35:12 *35:18 27.9879 
3 *35:18 *364:A 23 
4 *35:12 *342:A 38 
*END

*D_NET *36 0.000158251
*CONN
*I *365:A I *D sky130_fd_sc_hd__buf_2
*I *341:X O *D sky130_fd_sc_hd__clkbuf_1
*CAP
1 *365:A 7.91257e-05
2 *341:X 7.91257e-05
*RES
1 *341:X *365:A 47.4707 
*END

*D_NET *37 0.00015525
*CONN
*I *366:A I *D sky130_fd_sc_hd__buf_2
*I *342:X O *D sky130_fd_sc_hd__clkbuf_1
*CAP
1 *366:A 7.76249e-05
2 *342:X 7.76249e-05
*RES
1 *342:X *366:A 47.4707 
*END

*D_NET *38 0.000722242
*CONN
*I *367:A I *D sky130_fd_sc_hd__buf_2
*I *343:X O *D sky130_fd_sc_hd__clkbuf_1
*CAP
1 *367:A 4.98585e-05
2 *343:X 0.000126159
3 *38:12 0.000176017
4 *9:12 *367:A 2.32004e-05
5 *9:12 *38:12 9.75795e-05
6 *21:29 *38:12 1.86268e-05
7 *21:40 *367:A 5.50106e-05
8 *31:44 *38:12 1.29773e-05
9 *31:48 *38:12 0.000162813
*RES
1 *343:X *38:12 41.3764 
2 *38:12 *367:A 39.0979 
*END
