*SPEF "ieee 1481-1999"
*DESIGN "Maximum_Path_Memory"
*DATE "17:59:32 Wednesday January 21, 2026"
*VENDOR "The OpenROAD Project"
*PROGRAM "OpenROAD"
*VERSION "edf00dff99f6c40d67a30c0e22a8191c5d2ed9d6"
*DESIGN_FLOW "NAME_SCOPE LOCAL" "PIN_CAP NONE"
*DIVIDER /
*DELIMITER :
*BUS_DELIMITER []
*T_UNIT 1 NS
*C_UNIT 1 PF
*R_UNIT 1 OHM
*L_UNIT 1 HENRY

*NAME_MAP
*3 prev_00[0]
*4 prev_00[1]
*5 prev_00[2]
*6 prev_00[3]
*7 prev_01[0]
*8 prev_01[1]
*9 prev_01[2]
*10 prev_01[3]
*11 prev_10[0]
*12 prev_10[1]
*13 prev_10[2]
*14 prev_10[3]
*15 prev_11[0]
*16 prev_11[1]
*17 prev_11[2]
*18 prev_11[3]
*19 winner_state[0]
*20 winner_state[1]
*21 _00_
*22 _01_
*23 _02_
*24 _03_
*25 _04_
*26 _05_
*27 _06_
*28 _07_
*29 _08_
*30 _09_
*31 _10_
*32 _11_
*33 _12_
*34 _13_
*35 _14_
*36 _15_
*37 _16_
*38 _17_
*39 _18_
*40 _19_
*41 _20_
*42 _21_
*43 _22_
*44 _23_
*45 _24_
*46 _25_
*47 _26_
*48 _27_
*49 _28_
*50 _29_
*51 _30_
*52 _31_
*53 _32_
*54 _33_
*55 _34_
*56 _35_
*57 _36_
*58 _37_
*59 _38_
*60 net1
*61 net10
*62 net11
*63 net12
*64 net13
*65 net14
*66 net15
*67 net16
*68 net17
*69 net18
*70 net2
*71 net3
*72 net4
*73 net5
*74 net6
*75 net7
*76 net8
*77 net9
*78 FILLER_0_109
*79 FILLER_0_113
*80 FILLER_0_125
*81 FILLER_0_137
*82 FILLER_0_141
*83 FILLER_0_15
*84 FILLER_0_153
*85 FILLER_0_165
*86 FILLER_0_169
*87 FILLER_0_181
*88 FILLER_0_189
*89 FILLER_0_27
*90 FILLER_0_29
*91 FILLER_0_3
*92 FILLER_0_41
*93 FILLER_0_53
*94 FILLER_0_57
*95 FILLER_0_69
*96 FILLER_0_81
*97 FILLER_0_85
*98 FILLER_0_97
*99 FILLER_10_103
*100 FILLER_10_109
*101 FILLER_10_121
*102 FILLER_10_133
*103 FILLER_10_139
*104 FILLER_10_141
*105 FILLER_10_15
*106 FILLER_10_153
*107 FILLER_10_165
*108 FILLER_10_177
*109 FILLER_10_189
*110 FILLER_10_27
*111 FILLER_10_29
*112 FILLER_10_3
*113 FILLER_10_41
*114 FILLER_10_53
*115 FILLER_10_65
*116 FILLER_10_77
*117 FILLER_10_83
*118 FILLER_10_85
*119 FILLER_10_91
*120 FILLER_11_105
*121 FILLER_11_111
*122 FILLER_11_138
*123 FILLER_11_15
*124 FILLER_11_152
*125 FILLER_11_164
*126 FILLER_11_169
*127 FILLER_11_175
*128 FILLER_11_185
*129 FILLER_11_189
*130 FILLER_11_27
*131 FILLER_11_3
*132 FILLER_11_39
*133 FILLER_11_51
*134 FILLER_11_55
*135 FILLER_11_57
*136 FILLER_11_65
*137 FILLER_11_77
*138 FILLER_11_81
*139 FILLER_11_98
*140 FILLER_12_101
*141 FILLER_12_112
*142 FILLER_12_15
*143 FILLER_12_160
*144 FILLER_12_172
*145 FILLER_12_184
*146 FILLER_12_27
*147 FILLER_12_29
*148 FILLER_12_3
*149 FILLER_12_41
*150 FILLER_12_53
*151 FILLER_12_59
*152 FILLER_12_80
*153 FILLER_13_101
*154 FILLER_13_106
*155 FILLER_13_113
*156 FILLER_13_128
*157 FILLER_13_138
*158 FILLER_13_15
*159 FILLER_13_150
*160 FILLER_13_154
*161 FILLER_13_158
*162 FILLER_13_166
*163 FILLER_13_172
*164 FILLER_13_180
*165 FILLER_13_184
*166 FILLER_13_23
*167 FILLER_13_29
*168 FILLER_13_37
*169 FILLER_13_41
*170 FILLER_13_49
*171 FILLER_13_54
*172 FILLER_13_57
*173 FILLER_13_6
*174 FILLER_13_63
*175 FILLER_13_76
*176 FILLER_13_80
*177 FILLER_13_85
*178 FILLER_1_105
*179 FILLER_1_111
*180 FILLER_1_113
*181 FILLER_1_125
*182 FILLER_1_137
*183 FILLER_1_149
*184 FILLER_1_15
*185 FILLER_1_161
*186 FILLER_1_167
*187 FILLER_1_169
*188 FILLER_1_181
*189 FILLER_1_185
*190 FILLER_1_27
*191 FILLER_1_3
*192 FILLER_1_39
*193 FILLER_1_51
*194 FILLER_1_55
*195 FILLER_1_57
*196 FILLER_1_69
*197 FILLER_1_81
*198 FILLER_1_93
*199 FILLER_2_109
*200 FILLER_2_121
*201 FILLER_2_133
*202 FILLER_2_139
*203 FILLER_2_141
*204 FILLER_2_15
*205 FILLER_2_153
*206 FILLER_2_165
*207 FILLER_2_177
*208 FILLER_2_189
*209 FILLER_2_27
*210 FILLER_2_29
*211 FILLER_2_3
*212 FILLER_2_41
*213 FILLER_2_53
*214 FILLER_2_65
*215 FILLER_2_77
*216 FILLER_2_83
*217 FILLER_2_85
*218 FILLER_2_97
*219 FILLER_3_105
*220 FILLER_3_111
*221 FILLER_3_113
*222 FILLER_3_125
*223 FILLER_3_137
*224 FILLER_3_149
*225 FILLER_3_15
*226 FILLER_3_161
*227 FILLER_3_167
*228 FILLER_3_169
*229 FILLER_3_181
*230 FILLER_3_189
*231 FILLER_3_27
*232 FILLER_3_3
*233 FILLER_3_39
*234 FILLER_3_51
*235 FILLER_3_55
*236 FILLER_3_57
*237 FILLER_3_69
*238 FILLER_3_81
*239 FILLER_3_93
*240 FILLER_4_109
*241 FILLER_4_121
*242 FILLER_4_133
*243 FILLER_4_139
*244 FILLER_4_141
*245 FILLER_4_15
*246 FILLER_4_153
*247 FILLER_4_165
*248 FILLER_4_177
*249 FILLER_4_189
*250 FILLER_4_27
*251 FILLER_4_29
*252 FILLER_4_3
*253 FILLER_4_41
*254 FILLER_4_53
*255 FILLER_4_65
*256 FILLER_4_77
*257 FILLER_4_83
*258 FILLER_4_85
*259 FILLER_4_97
*260 FILLER_5_105
*261 FILLER_5_111
*262 FILLER_5_113
*263 FILLER_5_125
*264 FILLER_5_137
*265 FILLER_5_149
*266 FILLER_5_15
*267 FILLER_5_161
*268 FILLER_5_167
*269 FILLER_5_169
*270 FILLER_5_181
*271 FILLER_5_189
*272 FILLER_5_27
*273 FILLER_5_3
*274 FILLER_5_39
*275 FILLER_5_51
*276 FILLER_5_55
*277 FILLER_5_57
*278 FILLER_5_69
*279 FILLER_5_81
*280 FILLER_5_93
*281 FILLER_6_109
*282 FILLER_6_121
*283 FILLER_6_133
*284 FILLER_6_139
*285 FILLER_6_141
*286 FILLER_6_15
*287 FILLER_6_153
*288 FILLER_6_165
*289 FILLER_6_177
*290 FILLER_6_189
*291 FILLER_6_27
*292 FILLER_6_29
*293 FILLER_6_3
*294 FILLER_6_41
*295 FILLER_6_53
*296 FILLER_6_65
*297 FILLER_6_77
*298 FILLER_6_83
*299 FILLER_6_85
*300 FILLER_6_97
*301 FILLER_7_105
*302 FILLER_7_111
*303 FILLER_7_113
*304 FILLER_7_125
*305 FILLER_7_137
*306 FILLER_7_149
*307 FILLER_7_15
*308 FILLER_7_161
*309 FILLER_7_167
*310 FILLER_7_169
*311 FILLER_7_181
*312 FILLER_7_189
*313 FILLER_7_27
*314 FILLER_7_3
*315 FILLER_7_39
*316 FILLER_7_51
*317 FILLER_7_55
*318 FILLER_7_57
*319 FILLER_7_69
*320 FILLER_7_81
*321 FILLER_7_93
*322 FILLER_8_109
*323 FILLER_8_121
*324 FILLER_8_133
*325 FILLER_8_139
*326 FILLER_8_141
*327 FILLER_8_15
*328 FILLER_8_153
*329 FILLER_8_165
*330 FILLER_8_177
*331 FILLER_8_189
*332 FILLER_8_27
*333 FILLER_8_29
*334 FILLER_8_3
*335 FILLER_8_41
*336 FILLER_8_53
*337 FILLER_8_65
*338 FILLER_8_77
*339 FILLER_8_83
*340 FILLER_8_85
*341 FILLER_8_97
*342 FILLER_9_105
*343 FILLER_9_111
*344 FILLER_9_113
*345 FILLER_9_125
*346 FILLER_9_137
*347 FILLER_9_149
*348 FILLER_9_15
*349 FILLER_9_161
*350 FILLER_9_167
*351 FILLER_9_169
*352 FILLER_9_181
*353 FILLER_9_189
*354 FILLER_9_27
*355 FILLER_9_3
*356 FILLER_9_39
*357 FILLER_9_51
*358 FILLER_9_55
*359 FILLER_9_57
*360 FILLER_9_69
*361 FILLER_9_81
*362 FILLER_9_93
*363 PHY_EDGE_ROW_0_Left_14
*364 PHY_EDGE_ROW_0_Right_0
*365 PHY_EDGE_ROW_10_Left_24
*366 PHY_EDGE_ROW_10_Right_10
*367 PHY_EDGE_ROW_11_Left_25
*368 PHY_EDGE_ROW_11_Right_11
*369 PHY_EDGE_ROW_12_Left_26
*370 PHY_EDGE_ROW_12_Right_12
*371 PHY_EDGE_ROW_13_Left_27
*372 PHY_EDGE_ROW_13_Right_13
*373 PHY_EDGE_ROW_1_Left_15
*374 PHY_EDGE_ROW_1_Right_1
*375 PHY_EDGE_ROW_2_Left_16
*376 PHY_EDGE_ROW_2_Right_2
*377 PHY_EDGE_ROW_3_Left_17
*378 PHY_EDGE_ROW_3_Right_3
*379 PHY_EDGE_ROW_4_Left_18
*380 PHY_EDGE_ROW_4_Right_4
*381 PHY_EDGE_ROW_5_Left_19
*382 PHY_EDGE_ROW_5_Right_5
*383 PHY_EDGE_ROW_6_Left_20
*384 PHY_EDGE_ROW_6_Right_6
*385 PHY_EDGE_ROW_7_Left_21
*386 PHY_EDGE_ROW_7_Right_7
*387 PHY_EDGE_ROW_8_Left_22
*388 PHY_EDGE_ROW_8_Right_8
*389 PHY_EDGE_ROW_9_Left_23
*390 PHY_EDGE_ROW_9_Right_9
*391 TAP_TAPCELL_ROW_0_28
*392 TAP_TAPCELL_ROW_0_29
*393 TAP_TAPCELL_ROW_0_30
*394 TAP_TAPCELL_ROW_0_31
*395 TAP_TAPCELL_ROW_0_32
*396 TAP_TAPCELL_ROW_0_33
*397 TAP_TAPCELL_ROW_10_61
*398 TAP_TAPCELL_ROW_10_62
*399 TAP_TAPCELL_ROW_10_63
*400 TAP_TAPCELL_ROW_11_64
*401 TAP_TAPCELL_ROW_11_65
*402 TAP_TAPCELL_ROW_11_66
*403 TAP_TAPCELL_ROW_12_67
*404 TAP_TAPCELL_ROW_12_68
*405 TAP_TAPCELL_ROW_12_69
*406 TAP_TAPCELL_ROW_13_70
*407 TAP_TAPCELL_ROW_13_71
*408 TAP_TAPCELL_ROW_13_72
*409 TAP_TAPCELL_ROW_13_73
*410 TAP_TAPCELL_ROW_13_74
*411 TAP_TAPCELL_ROW_13_75
*412 TAP_TAPCELL_ROW_1_34
*413 TAP_TAPCELL_ROW_1_35
*414 TAP_TAPCELL_ROW_1_36
*415 TAP_TAPCELL_ROW_2_37
*416 TAP_TAPCELL_ROW_2_38
*417 TAP_TAPCELL_ROW_2_39
*418 TAP_TAPCELL_ROW_3_40
*419 TAP_TAPCELL_ROW_3_41
*420 TAP_TAPCELL_ROW_3_42
*421 TAP_TAPCELL_ROW_4_43
*422 TAP_TAPCELL_ROW_4_44
*423 TAP_TAPCELL_ROW_4_45
*424 TAP_TAPCELL_ROW_5_46
*425 TAP_TAPCELL_ROW_5_47
*426 TAP_TAPCELL_ROW_5_48
*427 TAP_TAPCELL_ROW_6_49
*428 TAP_TAPCELL_ROW_6_50
*429 TAP_TAPCELL_ROW_6_51
*430 TAP_TAPCELL_ROW_7_52
*431 TAP_TAPCELL_ROW_7_53
*432 TAP_TAPCELL_ROW_7_54
*433 TAP_TAPCELL_ROW_8_55
*434 TAP_TAPCELL_ROW_8_56
*435 TAP_TAPCELL_ROW_8_57
*436 TAP_TAPCELL_ROW_9_58
*437 TAP_TAPCELL_ROW_9_59
*438 TAP_TAPCELL_ROW_9_60
*439 _39_
*440 _40_
*441 _41_
*442 _42_
*443 _43_
*444 _44_
*445 _45_
*446 _46_
*447 _47_
*448 _48_
*449 _49_
*450 _50_
*451 _51_
*452 _52_
*453 _53_
*454 _54_
*455 _55_
*456 _56_
*457 _57_
*458 _58_
*459 _59_
*460 _60_
*461 _61_
*462 _62_
*463 _63_
*464 _64_
*465 _65_
*466 _66_
*467 _67_
*468 _68_
*469 _69_
*470 _70_
*471 _71_
*472 _72_
*473 _73_
*474 _74_
*475 _75_
*476 _76_
*477 _77_
*478 _78_
*479 _79_
*480 input1
*481 input10
*482 input11
*483 input12
*484 input13
*485 input14
*486 input15
*487 input16
*488 input2
*489 input3
*490 input4
*491 input5
*492 input6
*493 input7
*494 input8
*495 input9
*496 output17
*497 output18

*PORTS
prev_00[0] I
prev_00[1] I
prev_00[2] I
prev_00[3] I
prev_01[0] I
prev_01[1] I
prev_01[2] I
prev_01[3] I
prev_10[0] I
prev_10[1] I
prev_10[2] I
prev_10[3] I
prev_11[0] I
prev_11[1] I
prev_11[2] I
prev_11[3] I
winner_state[0] O
winner_state[1] O

*D_NET *3 0.00104901
*CONN
*P prev_00[0] I
*I *480:A I *D sky130_fd_sc_hd__buf_1
*CAP
1 prev_00[0] 0.000524503
2 *480:A 0.000524503
*RES
1 prev_00[0] *480:A 49.2271 
*END

*D_NET *4 0.000894531
*CONN
*P prev_00[1] I
*I *488:A I *D sky130_fd_sc_hd__buf_1
*CAP
1 prev_00[1] 0.000431122
2 *488:A 0.000431122
3 *488:A *60:8 3.22879e-05
*RES
1 prev_00[1] *488:A 47.3214 
*END

*D_NET *5 0.000894531
*CONN
*P prev_00[2] I
*I *489:A I *D sky130_fd_sc_hd__clkbuf_1
*CAP
1 prev_00[2] 0.000431122
2 *489:A 0.000431122
3 *489:A *60:8 3.22879e-05
*RES
1 prev_00[2] *489:A 47.3214 
*END

*D_NET *6 0.000925629
*CONN
*P prev_00[3] I
*I *490:A I *D sky130_fd_sc_hd__buf_1
*CAP
1 prev_00[3] 0.000446691
2 *490:A 0.000446691
3 *490:A *60:8 3.22467e-05
*RES
1 prev_00[3] *490:A 47.3214 
*END

*D_NET *7 0.000944493
*CONN
*P prev_01[0] I
*I *491:A I *D sky130_fd_sc_hd__clkbuf_1
*CAP
1 prev_01[0] 0.000428597
2 *491:A 0.000428597
3 *491:A *60:8 3.22879e-05
4 *491:A *72:16 5.50106e-05
*RES
1 prev_01[0] *491:A 47.3214 
*END

*D_NET *8 0.00178309
*CONN
*P prev_01[1] I
*I *492:A I *D sky130_fd_sc_hd__clkbuf_1
*CAP
1 prev_01[1] 0.000552865
2 *492:A 0
3 *8:11 0.000552865
4 *8:11 *446:B 1.28818e-05
5 *8:11 *28:12 8.95826e-05
6 *8:11 *72:16 0.000457696
7 *8:11 *73:8 5.67058e-05
8 *8:11 *73:20 6.0497e-05
*RES
1 prev_01[1] *8:11 28.7543 
2 *8:11 *492:A 23 
*END

*D_NET *9 0.000936557
*CONN
*P prev_01[2] I
*I *493:A I *D sky130_fd_sc_hd__clkbuf_1
*CAP
1 prev_01[2] 0.000424629
2 *493:A 0.000424629
3 *493:A *471:A1 0
4 *493:A *53:14 3.22879e-05
5 *493:A *72:16 5.50106e-05
*RES
1 prev_01[2] *493:A 47.3214 
*END

*D_NET *10 0.00177793
*CONN
*P prev_01[3] I
*I *494:A I *D sky130_fd_sc_hd__buf_1
*CAP
1 prev_01[3] 0.000689707
2 *494:A 0
3 *10:13 0.000689707
4 *10:13 *451:A2 9.61128e-05
5 *10:13 *31:21 2.93747e-05
6 *10:13 *72:20 4.6318e-06
7 *10:13 *72:54 0.000240439
8 *10:13 *76:12 2.79543e-05
*RES
1 prev_01[3] *10:13 29.3757 
2 *10:13 *494:A 23 
*END

*D_NET *11 0.000901064
*CONN
*P prev_10[0] I
*I *495:A I *D sky130_fd_sc_hd__clkbuf_1
*CAP
1 prev_10[0] 0.000450532
2 *495:A 0.000450532
*RES
1 prev_10[0] *495:A 47.3214 
*END

*D_NET *12 0.00185158
*CONN
*P prev_10[1] I
*I *481:A I *D sky130_fd_sc_hd__clkbuf_1
*CAP
1 prev_10[1] 0.000694712
2 *481:A 0
3 *12:19 0.000694712
4 *12:19 *439:A 0
5 *12:19 *456:A_N 0.000144747
6 *12:19 *456:B 3.12485e-05
7 *12:19 *458:A1 5.25848e-05
8 *12:19 *40:10 4.79641e-05
9 *12:19 *61:10 0.000137651
10 *12:19 *65:16 4.79641e-05
11 *12:19 *65:37 0
12 *12:19 *67:34 0
*RES
1 prev_10[1] *12:19 31.0743 
2 *12:19 *481:A 23 
*END

*D_NET *13 0.000943461
*CONN
*P prev_10[2] I
*I *482:A I *D sky130_fd_sc_hd__buf_1
*CAP
1 prev_10[2] 0.000427275
2 *482:A 0.000427275
3 *482:A *40:10 1.57571e-05
4 *482:A *65:16 5.50106e-05
5 *482:A *65:37 1.19692e-05
6 *482:A *67:34 6.17437e-06
*RES
1 prev_10[2] *482:A 47.3214 
*END

*D_NET *14 0.00138773
*CONN
*P prev_10[3] I
*I *483:A I *D sky130_fd_sc_hd__buf_1
*CAP
1 prev_10[3] 0.000611284
2 *483:A 0
3 *14:19 0.000611284
4 *14:19 *462:B1 0.000141954
5 *14:19 *484:A 0
6 *14:19 *65:16 2.32101e-05
*RES
1 prev_10[3] *14:19 29.79 
2 *14:19 *483:A 23 
*END

*D_NET *15 0.00107428
*CONN
*P prev_11[0] I
*I *484:A I *D sky130_fd_sc_hd__clkbuf_1
*CAP
1 prev_11[0] 0.000465313
2 *484:A 0.000465313
3 *484:A *65:16 0.000143655
4 *14:19 *484:A 0
*RES
1 prev_11[0] *484:A 48.2743 
*END

*D_NET *16 0.00109402
*CONN
*P prev_11[1] I
*I *485:A I *D sky130_fd_sc_hd__buf_1
*CAP
1 prev_11[1] 0.000496918
2 *485:A 0.000496918
3 *485:A *65:16 0.00010018
*RES
1 prev_11[1] *485:A 48.7507 
*END

*D_NET *17 0.0010006
*CONN
*P prev_11[2] I
*I *486:A I *D sky130_fd_sc_hd__buf_1
*CAP
1 prev_11[2] 0.000500298
2 *486:A 0.000500298
*RES
1 prev_11[2] *486:A 48.2743 
*END

*D_NET *18 0.00100406
*CONN
*P prev_11[3] I
*I *487:A I *D sky130_fd_sc_hd__buf_1
*CAP
1 prev_11[3] 0.000502031
2 *487:A 0.000502031
*RES
1 prev_11[3] *487:A 48.7507 
*END

*D_NET *19 0.000457328
*CONN
*P winner_state[0] O
*I *496:X O *D sky130_fd_sc_hd__buf_2
*CAP
1 winner_state[0] 0.000228664
2 *496:X 0.000228664
*RES
1 *496:X winner_state[0] 47.0789 
*END

*D_NET *20 0.000486751
*CONN
*P winner_state[1] O
*I *497:X O *D sky130_fd_sc_hd__buf_2
*CAP
1 winner_state[1] 0.000243376
2 *497:X 0.000243376
3 winner_state[1] *69:25 0
*RES
1 *497:X winner_state[1] 47.4311 
*END

*D_NET *21 0.00158936
*CONN
*I *464:A2 I *D sky130_fd_sc_hd__o221a_1
*I *439:Y O *D sky130_fd_sc_hd__inv_2
*CAP
1 *464:A2 0.000160245
2 *439:Y 6.22798e-05
3 *21:8 0.000222525
4 *464:A2 *464:B1 0.000442676
5 *464:A2 *62:12 0.000219383
6 *464:A2 *62:29 0.000318374
7 *21:8 *40:10 4.2781e-06
8 *21:8 *46:40 9.28078e-06
9 *21:8 *62:8 4.08641e-05
10 *21:8 *63:29 0.000109458
*RES
1 *439:Y *21:8 39.5536 
2 *21:8 *464:A2 44.3593 
*END

*D_NET *22 0.000566342
*CONN
*I *468:A0 I *D sky130_fd_sc_hd__mux2_1
*I *440:Y O *D sky130_fd_sc_hd__inv_2
*CAP
1 *468:A0 5.8798e-05
2 *440:Y 5.8798e-05
3 *468:A0 *479:A1 5.50106e-05
4 *468:A0 *23:12 0.000119313
5 *468:A0 *23:20 3.22879e-05
6 *468:A0 *46:12 9.84794e-05
7 *468:A0 *46:40 0.000143655
*RES
1 *440:Y *468:A0 49.0036 
*END

*D_NET *23 0.00206557
*CONN
*I *468:A1 I *D sky130_fd_sc_hd__mux2_1
*I *463:C1 I *D sky130_fd_sc_hd__a211o_1
*I *441:Y O *D sky130_fd_sc_hd__inv_2
*CAP
1 *468:A1 0
2 *463:C1 0
3 *441:Y 8.86678e-05
4 *23:20 0.000304977
5 *23:12 0.00070177
6 *23:8 0.000485461
7 *23:8 *62:35 0
8 *23:12 *479:A1 0.000185996
9 *23:20 *477:B 1.17152e-05
10 *23:20 *46:8 0
11 *23:20 *46:40 8.82787e-05
12 *23:20 *62:18 1.14452e-05
13 *23:20 *63:10 0
14 *23:20 *63:46 3.56594e-05
15 *468:A0 *23:12 0.000119313
16 *468:A0 *23:20 3.22879e-05
*RES
1 *441:Y *23:8 39.2014 
2 *23:8 *23:12 21.3386 
3 *23:12 *23:20 34.9093 
4 *23:20 *463:C1 23 
5 *23:12 *468:A1 23 
*END

*D_NET *24 0.00106918
*CONN
*I *453:A2 I *D sky130_fd_sc_hd__o221a_2
*I *442:Y O *D sky130_fd_sc_hd__inv_2
*CAP
1 *453:A2 9.54778e-05
2 *442:Y 6.58244e-05
3 *24:8 0.000161302
4 *453:A2 *25:8 0.000167431
5 *453:A2 *53:18 0.000308039
6 *24:8 *448:B 0.000135557
7 *24:8 *75:10 0.000135547
*RES
1 *442:Y *24:8 39.9057 
2 *24:8 *453:A2 41.48 
*END

*D_NET *25 0.00119636
*CONN
*I *452:C1 I *D sky130_fd_sc_hd__a211o_1
*I *443:Y O *D sky130_fd_sc_hd__inv_2
*CAP
1 *452:C1 0
2 *443:Y 0.000206004
3 *25:8 0.000206004
4 *25:8 *452:A1 7.23522e-06
5 *25:8 *453:B1 1.28818e-05
6 *25:8 *453:C1 4.05921e-05
7 *25:8 *30:33 1.57593e-05
8 *25:8 *35:10 0.000184527
9 *25:8 *35:49 0.000305425
10 *25:8 *53:18 5.04995e-05
11 *453:A2 *25:8 0.000167431
*RES
1 *443:Y *25:8 29.3593 
2 *25:8 *452:C1 23 
*END

*D_NET *26 0.000432509
*CONN
*I *447:B1 I *D sky130_fd_sc_hd__a21oi_1
*I *444:X O *D sky130_fd_sc_hd__and2b_1
*CAP
1 *447:B1 0
2 *444:X 0.000149183
3 *26:10 0.000149183
4 *26:10 *444:A_N 9.84794e-05
5 *26:10 *28:12 3.5664e-05
6 *26:10 *75:16 0
*RES
1 *444:X *26:10 40.6514 
2 *26:10 *447:B1 38 
*END

*D_NET *27 0.00124102
*CONN
*I *447:A1 I *D sky130_fd_sc_hd__a21oi_1
*I *445:Y O *D sky130_fd_sc_hd__nand2b_1
*CAP
1 *447:A1 0.000312984
2 *445:Y 9.53488e-05
3 *27:8 0.000408333
4 *447:A1 *470:B 6.91814e-05
5 *447:A1 *71:16 0.000256689
6 *447:A1 *74:29 9.84851e-05
7 *27:8 *454:A0 0
8 *27:8 *74:29 0
*RES
1 *445:Y *27:8 39.5536 
2 *27:8 *447:A1 44.815 
*END

*D_NET *28 0.00153878
*CONN
*I *447:A2 I *D sky130_fd_sc_hd__a21oi_1
*I *446:Y O *D sky130_fd_sc_hd__nand2b_1
*CAP
1 *447:A2 0
2 *446:Y 0.000422992
3 *28:12 0.000422992
4 *28:12 *470:B 2.35393e-05
5 *28:12 *52:8 0.00031749
6 *28:12 *53:14 9.58714e-05
7 *28:12 *73:20 5.50049e-05
8 *28:12 *74:8 4.60263e-05
9 *28:12 *74:14 2.96154e-05
10 *28:12 *75:16 0
11 *8:11 *28:12 8.95826e-05
12 *26:10 *28:12 3.5664e-05
*RES
1 *446:Y *28:12 47.0521 
2 *28:12 *447:A2 38 
*END

*D_NET *29 0.00174287
*CONN
*I *453:B1 I *D sky130_fd_sc_hd__o221a_2
*I *447:Y O *D sky130_fd_sc_hd__a21oi_1
*CAP
1 *453:B1 6.69944e-06
2 *447:Y 0.000467532
3 *29:10 0.000474232
4 *453:B1 *53:18 6.39489e-06
5 *29:10 *448:A 0
6 *29:10 *451:A1 1.23172e-05
7 *29:10 *467:A1 0.000197827
8 *29:10 *467:S 5.50049e-05
9 *29:10 *30:10 0.000222707
10 *29:10 *32:8 6.50202e-05
11 *29:10 *71:16 0.00012377
12 *29:10 *75:16 9.84794e-05
13 *25:8 *453:B1 1.28818e-05
*RES
1 *447:Y *29:10 48.6057 
2 *29:10 *453:B1 38.1502 
*END

*D_NET *30 0.00585929
*CONN
*I *475:C I *D sky130_fd_sc_hd__and3_1
*I *477:A_N I *D sky130_fd_sc_hd__nand2b_1
*I *452:A1 I *D sky130_fd_sc_hd__a211o_1
*I *451:A1 I *D sky130_fd_sc_hd__a21o_1
*I *448:Y O *D sky130_fd_sc_hd__nand2_1
*CAP
1 *475:C 5.15662e-05
2 *477:A_N 3.27957e-06
3 *452:A1 2.0436e-05
4 *451:A1 0.000186459
5 *448:Y 0.000306691
6 *30:56 0.0012146
7 *30:33 0.00141763
8 *30:10 0.000730583
9 *451:A1 *31:21 0
10 *451:A1 *32:8 2.36844e-05
11 *451:A1 *33:10 0.000129028
12 *451:A1 *71:38 5.11935e-06
13 *451:A1 *76:40 6.48142e-05
14 *475:C *477:B 0.000143688
15 *475:C *46:40 8.25698e-05
16 *475:C *50:18 1.72202e-05
17 *477:A_N *477:B 1.54359e-06
18 *477:A_N *50:18 1.65392e-05
19 *30:10 *448:A 3.22879e-05
20 *30:10 *467:S 9.95346e-05
21 *30:10 *35:49 6.15861e-05
22 *30:33 *453:C1 4.02485e-05
23 *30:33 *35:49 1.01436e-05
24 *30:33 *71:38 4.77554e-05
25 *30:33 *76:40 0
26 *30:56 *453:C1 8.1796e-05
27 *30:56 *465:A1 4.96717e-05
28 *30:56 *465:S 0.00017964
29 *30:56 *472:A1 0.000173168
30 *30:56 *39:10 0
31 *30:56 *42:6 2.93747e-05
32 *30:56 *46:40 0.000121065
33 *30:56 *53:18 0.000123154
34 *30:56 *54:10 9.67842e-05
35 *30:56 *67:34 2.93573e-05
36 *30:56 *67:46 1.02561e-05
37 *25:8 *452:A1 7.23522e-06
38 *25:8 *30:33 1.57593e-05
39 *29:10 *451:A1 1.23172e-05
40 *29:10 *30:10 0.000222707
*RES
1 *448:Y *30:10 44.1211 
2 *30:10 *451:A1 42.2568 
3 *30:10 *30:33 18.8425 
4 *30:33 *452:A1 23.4971 
5 *30:33 *30:56 49.6579 
6 *30:56 *477:A_N 23.1812 
7 *30:56 *475:C 24.9057 
*END

*D_NET *31 0.00110735
*CONN
*I *452:A2 I *D sky130_fd_sc_hd__a211o_1
*I *451:A2 I *D sky130_fd_sc_hd__a21o_1
*I *449:X O *D sky130_fd_sc_hd__or2_1
*CAP
1 *452:A2 0
2 *451:A2 7.6097e-05
3 *449:X 0
4 *31:21 0.000230113
5 *31:4 0.00030621
6 *451:A2 *72:54 5.67058e-05
7 *451:A2 *76:8 0.000228909
8 *451:A2 *76:12 1.24376e-05
9 *31:21 *36:14 2.54046e-05
10 *31:21 *71:38 4.21594e-06
11 *31:21 *76:8 4.17736e-05
12 *31:21 *77:10 0
13 *451:A1 *31:21 0
14 *10:13 *451:A2 9.61128e-05
15 *10:13 *31:21 2.93747e-05
*RES
1 *449:X *31:4 23 
2 *31:4 *451:A2 26.0243 
3 *31:4 *31:21 33.5836 
4 *31:21 *452:A2 23 
*END

*D_NET *32 0.00120274
*CONN
*I *451:B1 I *D sky130_fd_sc_hd__a21o_1
*I *450:X O *D sky130_fd_sc_hd__xor2_1
*CAP
1 *451:B1 1.80182e-05
2 *450:X 0.000239189
3 *32:8 0.000257208
4 *451:B1 *72:54 5.50106e-05
5 *451:B1 *76:12 2.93845e-05
6 *32:8 *448:A 0.000214862
7 *32:8 *33:10 6.08751e-05
8 *32:8 *72:20 0.000239487
9 *451:A1 *32:8 2.36844e-05
10 *29:10 *32:8 6.50202e-05
*RES
1 *450:X *32:8 44.1314 
2 *32:8 *451:B1 38.6214 
*END

*D_NET *33 0.00071895
*CONN
*I *453:B2 I *D sky130_fd_sc_hd__o221a_2
*I *451:X O *D sky130_fd_sc_hd__a21o_1
*CAP
1 *453:B2 0
2 *451:X 0.000195699
3 *33:10 0.000195699
4 *33:10 *76:12 0.000137651
5 *451:A1 *33:10 0.000129028
6 *32:8 *33:10 6.08751e-05
*RES
1 *451:X *33:10 41.48 
2 *33:10 *453:B2 38 
*END

*D_NET *34 0.000668436
*CONN
*I *453:C1 I *D sky130_fd_sc_hd__o221a_2
*I *452:X O *D sky130_fd_sc_hd__a211o_1
*CAP
1 *453:C1 9.54248e-05
2 *452:X 9.54248e-05
3 *453:C1 *53:18 0.00031495
4 *25:8 *453:C1 4.05921e-05
5 *30:33 *453:C1 4.02485e-05
6 *30:56 *453:C1 8.1796e-05
*RES
1 *452:X *453:C1 49.9771 
*END

*D_NET *35 0.0119803
*CONN
*I *479:A0 I *D sky130_fd_sc_hd__mux2_1
*I *467:S I *D sky130_fd_sc_hd__mux2_1
*I *470:B I *D sky130_fd_sc_hd__nand2b_1
*I *471:A2 I *D sky130_fd_sc_hd__o21ai_1
*I *454:S I *D sky130_fd_sc_hd__mux2_1
*I *453:X O *D sky130_fd_sc_hd__o221a_2
*CAP
1 *479:A0 0
2 *467:S 0.000127091
3 *470:B 0.000184909
4 *471:A2 5.00188e-05
5 *454:S 5.34121e-05
6 *453:X 0
7 *35:70 0.00313536
8 *35:49 0.00354878
9 *35:21 0.000243801
10 *35:10 0.000482398
11 *35:4 0.00070644
12 *454:S *70:27 9.67842e-05
13 *454:S *74:14 0.000139357
14 *467:S *467:A1 9.58714e-05
15 *467:S *36:14 0
16 *467:S *71:25 2.02872e-05
17 *467:S *71:38 2.12147e-05
18 *470:B *444:A_N 3.14555e-05
19 *470:B *52:8 0.000176329
20 *470:B *71:16 7.08823e-05
21 *470:B *74:29 0
22 *471:A2 *444:A_N 1.23172e-05
23 *471:A2 *471:A1 0.000114092
24 *471:A2 *52:8 5.93983e-05
25 *35:10 *444:A_N 9.90162e-05
26 *35:10 *36:6 0.000165918
27 *35:10 *53:18 3.05587e-05
28 *35:10 *74:14 0.000207853
29 *35:21 *444:A_N 2.24608e-05
30 *35:49 *71:38 2.52335e-05
31 *35:70 *479:A1 0.000160854
32 *35:70 *64:16 0.000742627
33 *35:70 *66:12 0.000128496
34 *35:70 *67:18 0
35 *35:70 *67:46 0.000208297
36 *35:70 *69:25 9.85586e-06
37 *447:A1 *470:B 6.91814e-05
38 *25:8 *35:10 0.000184527
39 *25:8 *35:49 0.000305425
40 *28:12 *470:B 2.35393e-05
41 *29:10 *467:S 5.50049e-05
42 *30:10 *467:S 9.95346e-05
43 *30:10 *35:49 6.15861e-05
44 *30:33 *35:49 1.01436e-05
*RES
1 *453:X *35:4 23 
2 *35:4 *35:10 9.11429 
3 *35:10 *454:S 24.5743 
4 *35:10 *35:21 15.3211 
5 *35:21 *471:A2 39.7296 
6 *35:21 *470:B 42.5364 
7 *35:4 *35:49 19.5054 
8 *35:49 *467:S 40.9518 
9 *35:49 *35:70 38.8475 
10 *35:70 *479:A0 23 
*END

*D_NET *36 0.00343525
*CONN
*I *466:B I *D sky130_fd_sc_hd__nand2b_1
*I *454:X O *D sky130_fd_sc_hd__mux2_1
*CAP
1 *466:B 0
2 *454:X 0.00090642
3 *36:14 0.000230778
4 *36:6 0.0011372
5 *36:6 *53:18 0.000899344
6 *36:14 *457:A_N 0
7 *36:14 *466:A_N 1.28818e-05
8 *36:14 *47:8 4.95045e-05
9 *36:14 *49:12 7.80291e-06
10 *36:14 *64:16 0
11 *36:14 *71:38 0
12 *467:S *36:14 0
13 *31:21 *36:14 2.54046e-05
14 *35:10 *36:6 0.000165918
*RES
1 *454:X *36:6 36.485 
2 *36:6 *36:14 33.8166 
3 *36:14 *466:B 23 
*END

*D_NET *37 0.000709477
*CONN
*I *458:B1 I *D sky130_fd_sc_hd__a21oi_1
*I *455:X O *D sky130_fd_sc_hd__and2b_1
*CAP
1 *458:B1 0
2 *455:X 0.000198602
3 *37:10 0.000198602
4 *37:10 *455:A_N 4.6318e-06
5 *37:10 *39:10 1.69668e-05
6 *37:10 *46:40 7.73389e-05
7 *37:10 *61:10 5.31444e-05
8 *37:10 *65:37 0.000160191
*RES
1 *455:X *37:10 41.8321 
2 *37:10 *458:B1 38 
*END

*D_NET *38 0.000199325
*CONN
*I *458:A1 I *D sky130_fd_sc_hd__a21oi_1
*I *456:Y O *D sky130_fd_sc_hd__nand2b_1
*CAP
1 *458:A1 2.32797e-05
2 *456:Y 2.32797e-05
3 *458:A1 *456:A_N 0.00010018
4 *12:19 *458:A1 5.25848e-05
*RES
1 *456:Y *458:A1 47.0979 
*END

*D_NET *39 0.00215822
*CONN
*I *458:A2 I *D sky130_fd_sc_hd__a21oi_1
*I *457:Y O *D sky130_fd_sc_hd__nand2b_1
*CAP
1 *458:A2 0
2 *457:Y 0.000583511
3 *39:10 0.000583511
4 *39:10 *455:A_N 5.79438e-05
5 *39:10 *456:B 0
6 *39:10 *469:A 0.000149742
7 *39:10 *472:A0 0
8 *39:10 *472:A1 0
9 *39:10 *476:A3 0
10 *39:10 *48:8 0.000223687
11 *39:10 *49:12 0.000351508
12 *39:10 *50:26 0
13 *39:10 *51:12 2.07355e-05
14 *39:10 *53:41 6.66781e-05
15 *39:10 *54:10 0
16 *39:10 *61:10 0.00010394
17 *39:10 *67:34 0
18 *39:10 *67:46 0
19 *30:56 *39:10 0
20 *37:10 *39:10 1.69668e-05
*RES
1 *457:Y *39:10 49.8693 
2 *39:10 *458:A2 38 
*END

*D_NET *40 0.00231972
*CONN
*I *464:B1 I *D sky130_fd_sc_hd__o221a_1
*I *458:Y O *D sky130_fd_sc_hd__a21oi_1
*CAP
1 *464:B1 0.000199754
2 *458:Y 0.000293158
3 *40:10 0.000492912
4 *464:B1 *42:6 0.000218471
5 *464:B1 *45:8 0.000145517
6 *464:B1 *46:40 9.67842e-05
7 *464:B1 *62:12 1.56762e-05
8 *40:10 *46:40 1.17256e-05
9 *40:10 *61:10 5.3304e-05
10 *40:10 *62:8 8.62783e-05
11 *40:10 *65:16 9.24795e-06
12 *40:10 *67:34 0.000186222
13 *464:A2 *464:B1 0.000442676
14 *482:A *40:10 1.57571e-05
15 *12:19 *40:10 4.79641e-05
16 *21:8 *40:10 4.2781e-06
*RES
1 *458:Y *40:10 42.9093 
2 *40:10 *464:B1 44.8357 
*END

*D_NET *41 0.00229303
*CONN
*I *462:A1 I *D sky130_fd_sc_hd__a21o_1
*I *463:A1 I *D sky130_fd_sc_hd__a211o_1
*I *477:B I *D sky130_fd_sc_hd__nand2b_1
*I *459:Y O *D sky130_fd_sc_hd__nand2_1
*CAP
1 *462:A1 5.78818e-05
2 *463:A1 0
3 *477:B 0.000339876
4 *459:Y 0
5 *41:8 0.000525846
6 *41:4 0.000243852
7 *462:A1 *42:20 0.000103956
8 *462:A1 *63:25 1.46214e-05
9 *462:A1 *65:16 0.000272383
10 *462:A1 *67:22 2.64616e-05
11 *477:B *42:20 1.01436e-05
12 *477:B *46:40 3.06412e-05
13 *477:B *50:18 6.16606e-05
14 *477:B *51:12 0
15 *477:B *62:18 6.07611e-06
16 *477:B *63:29 2.04389e-05
17 *477:B *63:46 8.04879e-05
18 *477:B *67:46 6.56284e-05
19 *41:8 *459:A 2.3529e-05
20 *41:8 *42:20 0.000168275
21 *41:8 *62:18 3.49867e-05
22 *41:8 *67:18 4.93359e-05
23 *475:C *477:B 0.000143688
24 *477:A_N *477:B 1.54359e-06
25 *23:20 *477:B 1.17152e-05
*RES
1 *459:Y *41:4 23 
2 *41:4 *41:8 18.6664 
3 *41:8 *477:B 44.0589 
4 *41:8 *463:A1 38 
5 *41:4 *462:A1 26.0036 
*END

*D_NET *42 0.0019875
*CONN
*I *463:A2 I *D sky130_fd_sc_hd__a211o_1
*I *462:A2 I *D sky130_fd_sc_hd__a21o_1
*I *460:X O *D sky130_fd_sc_hd__or2_1
*CAP
1 *463:A2 0
2 *462:A2 0
3 *460:X 0.000114892
4 *42:20 0.000202789
5 *42:6 0.000317681
6 *42:6 *460:A 3.88669e-05
7 *42:6 *460:B 5.50106e-05
8 *42:6 *45:8 9.5877e-05
9 *42:6 *46:40 7.06812e-05
10 *42:20 *459:A 3.70187e-05
11 *42:20 *63:25 0.000249259
12 *42:20 *63:29 0.000153784
13 *42:20 *65:16 1.3934e-05
14 *42:20 *67:22 0.000107485
15 *462:A1 *42:20 0.000103956
16 *464:B1 *42:6 0.000218471
17 *477:B *42:20 1.01436e-05
18 *30:56 *42:6 2.93747e-05
19 *41:8 *42:20 0.000168275
*RES
1 *460:X *42:6 26.48 
2 *42:6 *42:20 36.7529 
3 *42:20 *462:A2 23 
4 *42:6 *463:A2 23 
*END

*D_NET *43 0.000970121
*CONN
*I *462:B1 I *D sky130_fd_sc_hd__a21o_1
*I *461:X O *D sky130_fd_sc_hd__xor2_1
*CAP
1 *462:B1 4.14872e-05
2 *461:X 0.000208218
3 *43:10 0.000249705
4 *462:B1 *65:16 0.000185428
5 *43:10 *62:29 5.70419e-05
6 *43:10 *63:10 8.62876e-05
7 *43:10 *64:10 0
8 *14:19 *462:B1 0.000141954
*RES
1 *461:X *43:10 41.3557 
2 *43:10 *462:B1 40.0507 
*END

*D_NET *44 0.000574365
*CONN
*I *464:B2 I *D sky130_fd_sc_hd__o221a_1
*I *462:X O *D sky130_fd_sc_hd__a21o_1
*CAP
1 *464:B2 0
2 *462:X 0.000221007
3 *44:10 0.000221007
4 *44:10 *62:18 0
5 *44:10 *63:10 3.38667e-05
6 *44:10 *63:25 9.84851e-05
*RES
1 *462:X *44:10 41.0036 
2 *44:10 *464:B2 38 
*END

*D_NET *45 0.000804043
*CONN
*I *464:C1 I *D sky130_fd_sc_hd__o221a_1
*I *463:X O *D sky130_fd_sc_hd__a211o_1
*CAP
1 *464:C1 0
2 *463:X 0.000185847
3 *45:8 0.000185847
4 *45:8 *460:A 5.3304e-05
5 *45:8 *63:46 0.000137651
6 *464:B1 *45:8 0.000145517
7 *42:6 *45:8 9.5877e-05
*RES
1 *463:X *45:8 27.4536 
2 *45:8 *464:C1 23 
*END

*D_NET *46 0.00689878
*CONN
*I *479:A1 I *D sky130_fd_sc_hd__mux2_1
*I *468:S I *D sky130_fd_sc_hd__mux2_1
*I *472:S I *D sky130_fd_sc_hd__mux2_1
*I *465:S I *D sky130_fd_sc_hd__mux2_1
*I *464:X O *D sky130_fd_sc_hd__o221a_1
*CAP
1 *479:A1 0.000445903
2 *468:S 0
3 *472:S 0
4 *465:S 9.6094e-05
5 *464:X 0.00013949
6 *46:40 0.000772285
7 *46:12 0.000691452
8 *46:10 0.000461165
9 *46:8 0.00013949
10 *465:S *472:A1 5.50106e-05
11 *465:S *53:18 0.000141954
12 *465:S *53:41 0.000212162
13 *465:S *61:25 1.56762e-05
14 *479:A1 *69:10 0.000976291
15 *479:A1 *69:25 5.67058e-05
16 *46:8 *62:35 6.10123e-05
17 *46:12 *69:10 8.6949e-05
18 *46:40 *472:A1 0.000186301
19 *46:40 *50:18 0.000139346
20 *46:40 *61:25 0.000139346
21 *46:40 *62:12 5.50049e-05
22 *46:40 *63:29 6.53232e-05
23 *46:40 *67:34 2.2362e-05
24 *46:40 *67:46 6.3801e-05
25 *46:40 *69:10 0.000463652
26 *464:B1 *46:40 9.67842e-05
27 *468:A0 *479:A1 5.50106e-05
28 *468:A0 *46:12 9.84794e-05
29 *468:A0 *46:40 0.000143655
30 *475:C *46:40 8.25698e-05
31 *477:B *46:40 3.06412e-05
32 *21:8 *46:40 9.28078e-06
33 *23:12 *479:A1 0.000185996
34 *23:20 *46:8 0
35 *23:20 *46:40 8.82787e-05
36 *30:56 *465:S 0.00017964
37 *30:56 *46:40 0.000121065
38 *35:70 *479:A1 0.000160854
39 *37:10 *46:40 7.73389e-05
40 *40:10 *46:40 1.17256e-05
41 *42:6 *46:40 7.06812e-05
*RES
1 *464:X *46:8 40.2579 
2 *46:8 *46:10 15 
3 *46:10 *46:12 1.09786 
4 *46:12 *46:40 49.6579 
5 *46:40 *465:S 27.4329 
6 *46:40 *472:S 23 
7 *46:12 *468:S 23 
8 *46:10 *479:A1 38.08 
*END

*D_NET *47 0.000504199
*CONN
*I *466:A_N I *D sky130_fd_sc_hd__nand2b_1
*I *465:X O *D sky130_fd_sc_hd__mux2_1
*CAP
1 *466:A_N 0.000104321
2 *465:X 7.5373e-05
3 *47:8 0.000179694
4 *466:A_N *49:12 5.27753e-05
5 *47:8 *457:A_N 2.96489e-05
6 *36:14 *466:A_N 1.28818e-05
7 *36:14 *47:8 4.95045e-05
*RES
1 *465:X *47:8 39.5536 
2 *47:8 *466:A_N 40.0714 
*END

*D_NET *48 0.000975062
*CONN
*I *473:B1 I *D sky130_fd_sc_hd__o211a_1
*I *466:Y O *D sky130_fd_sc_hd__nand2b_1
*CAP
1 *473:B1 0
2 *466:Y 0.000207085
3 *48:8 0.000207085
4 *48:8 *457:B 1.37039e-05
5 *48:8 *469:A 0
6 *48:8 *49:12 0.000247824
7 *48:8 *51:12 1.8104e-05
8 *48:8 *51:25 5.3304e-05
9 *48:8 *53:41 4.26942e-06
10 *39:10 *48:8 0.000223687
*RES
1 *466:Y *48:8 28.8829 
2 *48:8 *473:B1 23 
*END

*D_NET *49 0.00293832
*CONN
*I *469:A I *D sky130_fd_sc_hd__nand2_1
*I *474:A I *D sky130_fd_sc_hd__nor2_1
*I *467:X O *D sky130_fd_sc_hd__mux2_1
*CAP
1 *469:A 0.000165211
2 *474:A 0.000138316
3 *467:X 0.000582227
4 *49:12 0.000885754
5 *469:A *476:A3 1.34354e-05
6 *469:A *478:A1 3.67775e-05
7 *469:A *478:B1 5.67058e-05
8 *469:A *50:18 0
9 *469:A *51:12 0.000169192
10 *469:A *53:41 6.17437e-06
11 *469:A *69:10 2.4754e-05
12 *474:A *476:A3 5.01247e-05
13 *474:A *50:26 0
14 *466:A_N *49:12 5.27753e-05
15 *36:14 *49:12 7.80291e-06
16 *39:10 *469:A 0.000149742
17 *39:10 *49:12 0.000351508
18 *48:8 *469:A 0