*SPEF "ieee 1481-1999"
*DESIGN "Branch_Metrics"
*DATE "17:58:05 Wednesday January 21, 2026"
*VENDOR "The OpenROAD Project"
*PROGRAM "OpenROAD"
*VERSION "edf00dff99f6c40d67a30c0e22a8191c5d2ed9d6"
*DESIGN_FLOW "NAME_SCOPE LOCAL" "PIN_CAP NONE"
*DIVIDER /
*DELIMITER :
*BUS_DELIMITER []
*T_UNIT 1 NS
*C_UNIT 1 PF
*R_UNIT 1 OHM
*L_UNIT 1 HENRY

*NAME_MAP
*3 bm_00_00[0]
*4 bm_00_00[1]
*5 bm_00_10[0]
*6 bm_00_10[1]
*7 bm_01_00[0]
*8 bm_01_00[1]
*9 bm_01_10[0]
*10 bm_01_10[1]
*11 bm_10_01[0]
*12 bm_10_01[1]
*13 bm_10_11[0]
*14 bm_10_11[1]
*15 bm_11_01[0]
*16 bm_11_01[1]
*17 bm_11_11[0]
*18 bm_11_11[1]
*19 received[0]
*20 received[1]
*21 net1
*22 net10
*23 net11
*24 net12
*25 net13
*26 net14
*27 net15
*28 net16
*29 net17
*30 net18
*31 net2
*32 net3
*33 net4
*34 net5
*35 net6
*36 net7
*37 net8
*38 net9
*39 FILLER_0_15
*40 FILLER_0_27
*41 FILLER_0_29
*42 FILLER_0_3
*43 FILLER_0_41
*44 FILLER_0_53
*45 FILLER_0_57
*46 FILLER_0_61
*47 FILLER_10_15
*48 FILLER_10_27
*49 FILLER_10_29
*50 FILLER_10_3
*51 FILLER_10_41
*52 FILLER_10_53
*53 FILLER_10_68
*54 FILLER_11_15
*55 FILLER_11_27
*56 FILLER_11_3
*57 FILLER_11_39
*58 FILLER_11_51
*59 FILLER_11_55
*60 FILLER_11_57
*61 FILLER_11_68
*62 FILLER_12_15
*63 FILLER_12_27
*64 FILLER_12_29
*65 FILLER_12_3
*66 FILLER_12_41
*67 FILLER_12_53
*68 FILLER_12_68
*69 FILLER_13_15
*70 FILLER_13_27
*71 FILLER_13_3
*72 FILLER_13_39
*73 FILLER_13_51
*74 FILLER_13_55
*75 FILLER_13_57
*76 FILLER_13_65
*77 FILLER_14_15
*78 FILLER_14_27
*79 FILLER_14_29
*80 FILLER_14_3
*81 FILLER_14_41
*82 FILLER_14_53
*83 FILLER_14_65
*84 FILLER_14_69
*85 FILLER_15_15
*86 FILLER_15_27
*87 FILLER_15_3
*88 FILLER_15_39
*89 FILLER_15_51
*90 FILLER_15_55
*91 FILLER_15_57
*92 FILLER_15_65
*93 FILLER_16_15
*94 FILLER_16_27
*95 FILLER_16_29
*96 FILLER_16_3
*97 FILLER_16_41
*98 FILLER_16_53
*99 FILLER_16_65
*100 FILLER_16_69
*101 FILLER_17_15
*102 FILLER_17_27
*103 FILLER_17_3
*104 FILLER_17_39
*105 FILLER_17_51
*106 FILLER_17_55
*107 FILLER_17_57
*108 FILLER_17_67
*109 FILLER_18_15
*110 FILLER_18_27
*111 FILLER_18_29
*112 FILLER_18_3
*113 FILLER_18_41
*114 FILLER_18_53
*115 FILLER_18_68
*116 FILLER_19_15
*117 FILLER_19_27
*118 FILLER_19_3
*119 FILLER_19_39
*120 FILLER_19_51
*121 FILLER_19_55
*122 FILLER_19_57
*123 FILLER_1_15
*124 FILLER_1_27
*125 FILLER_1_3
*126 FILLER_1_39
*127 FILLER_1_51
*128 FILLER_1_55
*129 FILLER_1_57
*130 FILLER_1_68
*131 FILLER_20_15
*132 FILLER_20_27
*133 FILLER_20_29
*134 FILLER_20_3
*135 FILLER_20_41
*136 FILLER_20_53
*137 FILLER_20_69
*138 FILLER_21_15
*139 FILLER_21_27
*140 FILLER_21_3
*141 FILLER_21_39
*142 FILLER_21_51
*143 FILLER_21_55
*144 FILLER_21_57
*145 FILLER_21_69
*146 FILLER_22_15
*147 FILLER_22_27
*148 FILLER_22_29
*149 FILLER_22_3
*150 FILLER_22_41
*151 FILLER_22_53
*152 FILLER_22_61
*153 FILLER_23_19
*154 FILLER_23_31
*155 FILLER_23_43
*156 FILLER_23_55
*157 FILLER_23_57
*158 FILLER_23_68
*159 FILLER_23_7
*160 FILLER_24_15
*161 FILLER_24_27
*162 FILLER_24_29
*163 FILLER_24_3
*164 FILLER_24_41
*165 FILLER_24_53
*166 FILLER_24_61
*167 FILLER_25_15
*168 FILLER_25_27
*169 FILLER_25_3
*170 FILLER_25_39
*171 FILLER_25_51
*172 FILLER_25_55
*173 FILLER_25_57
*174 FILLER_25_69
*175 FILLER_26_15
*176 FILLER_26_27
*177 FILLER_26_29
*178 FILLER_26_3
*179 FILLER_26_41
*180 FILLER_26_53
*181 FILLER_26_65
*182 FILLER_27_15
*183 FILLER_27_27
*184 FILLER_27_29
*185 FILLER_27_3
*186 FILLER_27_41
*187 FILLER_27_53
*188 FILLER_27_57
*189 FILLER_27_61
*190 FILLER_2_15
*191 FILLER_2_27
*192 FILLER_2_29
*193 FILLER_2_3
*194 FILLER_2_41
*195 FILLER_2_53
*196 FILLER_2_65
*197 FILLER_3_15
*198 FILLER_3_27
*199 FILLER_3_3
*200 FILLER_3_39
*201 FILLER_3_51
*202 FILLER_3_55
*203 FILLER_3_57
*204 FILLER_3_69
*205 FILLER_4_15
*206 FILLER_4_27
*207 FILLER_4_29
*208 FILLER_4_3
*209 FILLER_4_41
*210 FILLER_4_53
*211 FILLER_4_65
*212 FILLER_5_19
*213 FILLER_5_31
*214 FILLER_5_43
*215 FILLER_5_55
*216 FILLER_5_57
*217 FILLER_5_69
*218 FILLER_5_7
*219 FILLER_6_15
*220 FILLER_6_27
*221 FILLER_6_29
*222 FILLER_6_3
*223 FILLER_6_41
*224 FILLER_6_53
*225 FILLER_6_61
*226 FILLER_7_15
*227 FILLER_7_27
*228 FILLER_7_3
*229 FILLER_7_39
*230 FILLER_7_51
*231 FILLER_7_55
*232 FILLER_7_57
*233 FILLER_7_69
*234 FILLER_8_15
*235 FILLER_8_27
*236 FILLER_8_29
*237 FILLER_8_3
*238 FILLER_8_41
*239 FILLER_8_53
*240 FILLER_8_61
*241 FILLER_9_15
*242 FILLER_9_27
*243 FILLER_9_3
*244 FILLER_9_39
*245 FILLER_9_51
*246 FILLER_9_55
*247 FILLER_9_57
*248 PHY_EDGE_ROW_0_Left_28
*249 PHY_EDGE_ROW_0_Right_0
*250 PHY_EDGE_ROW_10_Left_38
*251 PHY_EDGE_ROW_10_Right_10
*252 PHY_EDGE_ROW_11_Left_39
*253 PHY_EDGE_ROW_11_Right_11
*254 PHY_EDGE_ROW_12_Left_40
*255 PHY_EDGE_ROW_12_Right_12
*256 PHY_EDGE_ROW_13_Left_41
*257 PHY_EDGE_ROW_13_Right_13
*258 PHY_EDGE_ROW_14_Left_42
*259 PHY_EDGE_ROW_14_Right_14
*260 PHY_EDGE_ROW_15_Left_43
*261 PHY_EDGE_ROW_15_Right_15
*262 PHY_EDGE_ROW_16_Left_44
*263 PHY_EDGE_ROW_16_Right_16
*264 PHY_EDGE_ROW_17_Left_45
*265 PHY_EDGE_ROW_17_Right_17
*266 PHY_EDGE_ROW_18_Left_46
*267 PHY_EDGE_ROW_18_Right_18
*268 PHY_EDGE_ROW_19_Left_47
*269 PHY_EDGE_ROW_19_Right_19
*270 PHY_EDGE_ROW_1_Left_29
*271 PHY_EDGE_ROW_1_Right_1
*272 PHY_EDGE_ROW_20_Left_48
*273 PHY_EDGE_ROW_20_Right_20
*274 PHY_EDGE_ROW_21_Left_49
*275 PHY_EDGE_ROW_21_Right_21
*276 PHY_EDGE_ROW_22_Left_50
*277 PHY_EDGE_ROW_22_Right_22
*278 PHY_EDGE_ROW_23_Left_51
*279 PHY_EDGE_ROW_23_Right_23
*280 PHY_EDGE_ROW_24_Left_52
*281 PHY_EDGE_ROW_24_Right_24
*282 PHY_EDGE_ROW_25_Left_53
*283 PHY_EDGE_ROW_25_Right_25
*284 PHY_EDGE_ROW_26_Left_54
*285 PHY_EDGE_ROW_26_Right_26
*286 PHY_EDGE_ROW_27_Left_55
*287 PHY_EDGE_ROW_27_Right_27
*288 PHY_EDGE_ROW_2_Left_30
*289 PHY_EDGE_ROW_2_Right_2
*290 PHY_EDGE_ROW_3_Left_31
*291 PHY_EDGE_ROW_3_Right_3
*292 PHY_EDGE_ROW_4_Left_32
*293 PHY_EDGE_ROW_4_Right_4
*294 PHY_EDGE_ROW_5_Left_33
*295 PHY_EDGE_ROW_5_Right_5
*296 PHY_EDGE_ROW_6_Left_34
*297 PHY_EDGE_ROW_6_Right_6
*298 PHY_EDGE_ROW_7_Left_35
*299 PHY_EDGE_ROW_7_Right_7
*300 PHY_EDGE_ROW_8_Left_36
*301 PHY_EDGE_ROW_8_Right_8
*302 PHY_EDGE_ROW_9_Left_37
*303 PHY_EDGE_ROW_9_Right_9
*304 TAP_TAPCELL_ROW_0_56
*305 TAP_TAPCELL_ROW_0_57
*306 TAP_TAPCELL_ROW_10_67
*307 TAP_TAPCELL_ROW_11_68
*308 TAP_TAPCELL_ROW_12_69
*309 TAP_TAPCELL_ROW_13_70
*310 TAP_TAPCELL_ROW_14_71
*311 TAP_TAPCELL_ROW_15_72
*312 TAP_TAPCELL_ROW_16_73
*313 TAP_TAPCELL_ROW_17_74
*314 TAP_TAPCELL_ROW_18_75
*315 TAP_TAPCELL_ROW_19_76
*316 TAP_TAPCELL_ROW_1_58
*317 TAP_TAPCELL_ROW_20_77
*318 TAP_TAPCELL_ROW_21_78
*319 TAP_TAPCELL_ROW_22_79
*320 TAP_TAPCELL_ROW_23_80
*321 TAP_TAPCELL_ROW_24_81
*322 TAP_TAPCELL_ROW_25_82
*323 TAP_TAPCELL_ROW_26_83
*324 TAP_TAPCELL_ROW_27_84
*325 TAP_TAPCELL_ROW_27_85
*326 TAP_TAPCELL_ROW_2_59
*327 TAP_TAPCELL_ROW_3_60
*328 TAP_TAPCELL_ROW_4_61
*329 TAP_TAPCELL_ROW_5_62
*330 TAP_TAPCELL_ROW_6_63
*331 TAP_TAPCELL_ROW_7_64
*332 TAP_TAPCELL_ROW_8_65
*333 TAP_TAPCELL_ROW_9_66
*334 _00_
*335 _01_
*336 _02_
*337 _03_
*338 _04_
*339 _05_
*340 _06_
*341 _07_
*342 _08_
*343 _09_
*344 _10_
*345 _11_
*346 _12_
*347 _13_
*348 _14_
*349 _15_
*350 input1
*351 input2
*352 output10
*353 output11
*354 output12
*355 output13
*356 output14
*357 output15
*358 output16
*359 output17
*360 output18
*361 output3
*362 output4
*363 output5
*364 output6
*365 output7
*366 output8
*367 output9

*PORTS
bm_00_00[0] O
bm_00_00[1] O
bm_00_10[0] O
bm_00_10[1] O
bm_01_00[0] O
bm_01_00[1] O
bm_01_10[0] O
bm_01_10[1] O
bm_10_01[0] O
bm_10_01[1] O
bm_10_11[0] O
bm_10_11[1] O
bm_11_01[0] O
bm_11_01[1] O
bm_11_11[0] O
bm_11_11[1] O
received[0] I
received[1] I

*D_NET *3 0.00123125
*CONN
*P bm_00_00[0] O
*I *361:X O *D sky130_fd_sc_hd__buf_2
*CAP
1 bm_00_00[0] 0.000615623
2 *361:X 0.000615623
3 bm_00_00[0] bm_00_00[1] 0
*RES
1 *361:X bm_00_00[0] 24.9456 
*END

*D_NET *4 0.000912226
*CONN
*P bm_00_00[1] O
*I *362:X O *D sky130_fd_sc_hd__buf_2
*CAP
1 bm_00_00[1] 0.000456113
2 *362:X 0.000456113
3 bm_00_00[1] bm_00_10[0] 0
4 bm_00_00[0] bm_00_00[1] 0
*RES
1 *362:X bm_00_00[1] 19.8416 
*END

*D_NET *5 0.000633839
*CONN
*P bm_00_10[0] O
*I *363:X O *D sky130_fd_sc_hd__buf_2
*CAP
1 bm_00_10[0] 0.000283103
2 *363:X 0.000283103
3 bm_00_10[0] bm_00_10[1] 0
4 bm_00_10[0] *363:A 6.76337e-05
5 bm_00_00[1] bm_00_10[0] 0
*RES
1 *363:X bm_00_10[0] 18.8741 
*END

*D_NET *6 0.000526676
*CONN
*P bm_00_10[1] O
*I *364:X O *D sky130_fd_sc_hd__buf_2
*CAP
1 bm_00_10[1] 0.000259084
2 *364:X 0.000259084
3 bm_00_10[1] bm_01_00[0] 0
4 bm_00_10[1] *362:A 8.50795e-06
5 bm_00_10[0] bm_00_10[1] 0
*RES
1 *364:X bm_00_10[1] 18.267 
*END

*D_NET *7 0.000577126
*CONN
*P bm_01_00[0] O
*I *365:X O *D sky130_fd_sc_hd__buf_2
*CAP
1 bm_01_00[0] 0.000280335
2 *365:X 0.000280335
3 bm_01_00[0] *362:A 1.64552e-05
4 bm_00_10[1] bm_01_00[0] 0
*RES
1 *365:X bm_01_00[0] 18.5706 
*END

*D_NET *8 0.000690143
*CONN
*P bm_01_00[1] O
*I *366:X O *D sky130_fd_sc_hd__buf_2
*CAP
1 bm_01_00[1] 0.000296913
2 *366:X 0.000296913
3 bm_01_00[1] bm_01_10[0] 0
4 bm_01_00[1] *362:A 9.63175e-05
*RES
1 *366:X bm_01_00[1] 19.1777 
*END

*D_NET *9 0.00129884
*CONN
*P bm_01_10[0] O
*I *367:X O *D sky130_fd_sc_hd__buf_2
*CAP
1 bm_01_10[0] 0.000521497
2 *367:X 0.000521497
3 bm_01_10[0] bm_01_10[1] 0
4 bm_01_10[0] *367:A 0.000111732
5 bm_01_10[0] *21:29 9.08128e-05
6 bm_01_10[0] *21:44 5.33005e-05
7 bm_01_00[1] bm_01_10[0] 0
*RES
1 *367:X bm_01_10[0] 21.2338 
*END

*D_NET *10 0.000538316
*CONN
*P bm_01_10[1] O
*I *352:X O *D sky130_fd_sc_hd__buf_2
*CAP
1 bm_01_10[1] 0.000253254
2 *352:X 0.000253254
3 bm_01_10[1] bm_10_01[0] 0
4 bm_01_10[1] *352:A 2.22043e-05
5 bm_01_10[1] *21:44 9.60337e-06
6 bm_01_10[0] bm_01_10[1] 0
*RES
1 *352:X bm_01_10[1] 18.267 
*END

*D_NET *11 0.000556639
*CONN
*P bm_10_01[0] O
*I *353:X O *D sky130_fd_sc_hd__buf_2
*CAP
1 bm_10_01[0] 0.000261875
2 *353:X 0.000261875
3 bm_10_01[0] bm_10_01[1] 0
4 bm_10_01[0] *21:44 1.01912e-05
5 bm_10_01[0] *31:44 2.26973e-05
6 bm_01_10[1] bm_10_01[0] 0
*RES
1 *353:X bm_10_01[0] 18.267 
*END

*D_NET *12 0.00123443
*CONN
*P bm_10_01[1] O
*I *354:X O *D sky130_fd_sc_hd__buf_2
*CAP
1 bm_10_01[1] 0.000361757
2 *354:X 0.000361757
3 bm_10_01[1] bm_10_11[0] 0
4 bm_10_01[1] *360:A 7.83659e-05
5 bm_10_01[1] *23:17 0.000125829
6 bm_10_01[1] *31:23 0.00011891
7 bm_10_01[1] *31:29 0.000187812
8 bm_10_01[0] bm_10_01[1] 0
*RES
1 *354:X bm_10_01[1] 21.9098 
*END

*D_NET *13 0.00113583
*CONN
*P bm_10_11[0] O
*I *355:X O *D sky130_fd_sc_hd__buf_2
*CAP
1 bm_10_11[0] 0.000557926
2 *355:X 0.000557926
3 bm_10_11[0] bm_10_11[1] 0
4 bm_10_11[0] *355:A 1.99737e-05
5 bm_10_01[1] bm_10_11[0] 0
*RES
1 *355:X bm_10_11[0] 19.4507 
*END

*D_NET *14 0.000539548
*CONN
*P bm_10_11[1] O
*I *356:X O *D sky130_fd_sc_hd__buf_2
*CAP
1 bm_10_11[1] 0.000258672
2 *356:X 0.000258672
3 bm_10_11[1] bm_11_01[0] 0
4 bm_10_11[1] *360:A 2.22043e-05
5 bm_10_11[0] bm_10_11[1] 0
*RES
1 *356:X bm_10_11[1] 18.267 
*END

*D_NET *15 0.000580307
*CONN
*P bm_11_01[0] O
*I *357:X O *D sky130_fd_sc_hd__buf_2
*CAP
1 bm_11_01[0] 0.000266358
2 *357:X 0.000266358
3 bm_11_01[0] bm_11_01[1] 0
4 bm_11_01[0] *360:A 4.75911e-05
5 bm_10_11[1] bm_11_01[0] 0
*RES
1 *357:X bm_11_01[0] 18.5706 
*END

*D_NET *16 0.000725427
*CONN
*P bm_11_01[1] O
*I *358:X O *D sky130_fd_sc_hd__buf_2
*CAP
1 bm_11_01[1] 0.000283546
2 *358:X 0.000283546
3 bm_11_01[1] bm_11_11[0] 0
4 bm_11_01[1] bm_11_11[1] 0.000115369
5 bm_11_01[1] *358:A 4.29654e-05
6 bm_11_01[0] bm_11_01[1] 0
*RES
1 *358:X bm_11_01[1] 19.4813 
*END

*D_NET *17 0.00097669
*CONN
*P bm_11_11[0] O
*I *359:X O *D sky130_fd_sc_hd__buf_2
*CAP
1 bm_11_11[0] 0.000488345
2 *359:X 0.000488345
3 bm_11_11[0] bm_11_11[1] 0
4 bm_11_01[1] bm_11_11[0] 0
*RES
1 *359:X bm_11_11[0] 20.9838 
*END

*D_NET *18 0.001906
*CONN
*P bm_11_11[1] O
*I *360:X O *D sky130_fd_sc_hd__buf_2
*CAP
1 bm_11_11[1] 0.000879463
2 *360:X 0.000879463
3 bm_11_11[1] *358:A 0
4 bm_11_11[1] *360:A 3.17067e-05
5 bm_11_01[1] bm_11_11[1] 0.000115369
6 bm_11_11[0] bm_11_11[1] 0
*RES
1 *360:X bm_11_11[1] 30.5699 
*END

*D_NET *19 0.000626121
*CONN
*P received[0] I
*I *350:A I *D sky130_fd_sc_hd__clkbuf_2
*CAP
1 received[0] 0.000313061
2 *350:A 0.000313061
*RES
1 received[0] *350:A 21.6012 
*END

*D_NET *20 0.000550869
*CONN
*P received[1] I
*I *351:A I *D sky130_fd_sc_hd__clkbuf_2
*CAP
1 received[1] 0.000275434
2 *351:A 0.000275434
*RES
1 received[1] *351:A 20.994 
*END

*D_NET *21 0.00953203
*CONN
*I *335:A I *D sky130_fd_sc_hd__nor2_1
*I *338:A_N I *D sky130_fd_sc_hd__and2b_1
*I *339:B I *D sky130_fd_sc_hd__and2b_1
*I *337:A I *D sky130_fd_sc_hd__xnor2_1
*I *334:A I *D sky130_fd_sc_hd__and2_1
*I *336:A I *D sky130_fd_sc_hd__xor2_1
*I *350:X O *D sky130_fd_sc_hd__clkbuf_2
*CAP
1 *335:A 0.000171806
2 *338:A_N 0.000252949
3 *339:B 0
4 *337:A 4.69984e-05
5 *334:A 0
6 *336:A 0
7 *350:X 0.00162778
8 *21:55 0.00036424
9 *21:44 0.00112858
10 *21:29 0.0011533
11 *21:23 0.000407487
12 *21:14 0.000428896
13 *21:12 0.00200401
14 *335:A *335:B 5.33005e-05
15 *335:A *336:B 0.000126572
16 *337:A *337:B 5.71472e-05
17 *338:A_N *345:A 4.51691e-05
18 *338:A_N *349:A 1.31516e-05
19 *338:A_N *354:A 6.74911e-05
20 *338:A_N *355:A 0.00010219
21 *338:A_N *23:17 6.77746e-05
22 *338:A_N *23:34 7.0452e-05
23 *338:A_N *31:23 6.09889e-05
24 *21:23 *336:B 2.37575e-05
25 *21:29 *343:A 0.000153054
26 *21:29 *367:A 1.78874e-05
27 *21:29 *31:48 2.59795e-05
28 *21:44 *334:B 5.33005e-05
29 *21:44 *337:B 0.000126566
30 *21:44 *344:A 7.36267e-05
31 *21:44 *352:A 4.72741e-05
32 *21:44 *367:A 5.52302e-05
33 *21:44 *31:29 0.000127766
34 *21:44 *31:44 0.000260085
35 *21:55 *349:A 2.94103e-05
36 *21:55 *23:17 0.000123912
37 bm_01_10[0] *21:29 9.08128e-05
38 bm_01_10[0] *21:44 5.33005e-05
39 bm_01_10[1] *21:44 9.60337e-06
40 bm_10_01[0] *21:44 1.01912e-05
*RES
1 *350:X *21:12 44.8 
2 *21:12 *21:14 6.28571 
3 *21:14 *336:A 9.3 
4 *21:14 *21:23 0.964286 
5 *21:23 *21:29 13.375 
6 *21:29 *334:A 9.3 
7 *21:29 *21:44 29.5893 
8 *21:44 *337:A 10.2464 
9 *21:44 *21:55 7.35714 
10 *21:55 *339:B 13.8 
11 *21:55 *338:A_N 19.6393 
12 *21:23 *335:A 12.3179 
*END

*D_NET *22 0.000407919
*CONN
*I *352:A I *D sky130_fd_sc_hd__buf_2
*I *344:X O *D sky130_fd_sc_hd__clkbuf_1
*CAP
1 *352:A 9.26965e-05
2 *344:X 9.26965e-05
3 *352:A *31:44 0.000153047
4 bm_01_10[1] *352:A 2.22043e-05
5 *21:44 *352:A 4.72741e-05
*RES
1 *344:X *352:A 30.0821 
*END

*D_NET *23 0.00394729
*CONN
*I *346:A I *D sky130_fd_sc_hd__clkbuf_1
*I *348:A I *D sky130_fd_sc_hd__clkbuf_1
*I *345:A I *D sky130_fd_sc_hd__clkbuf_1
*I *353:A I *D sky130_fd_sc_hd__buf_2
*I *337:Y O *D sky130_fd_sc_hd__xnor2_1
*CAP
1 *346:A 0
2 *348:A 0.000173305
3 *345:A 4.24598e-05
4 *353:A 0.000158408
5 *337:Y 0
6 *23:34 0.000468949
7 *23:17 0.000482567
8 *23:6 0.000302872
9 *348:A *358:A 0.000176234
10 *348:A *31:12 6.05161e-06
11 *353:A *31:44 0.000349061
12 *23:17 *360:A 0.000115206
13 *23:17 *31:29 7.47029e-06
14 *23:17 *31:44 3.34295e-05
15 *23:34 *355:A 7.79781e-06
16 *23:34 *357:A 6.05161e-06
17 *23:34 *358:A 0.000153047
18 *23:34 *360:A 0.000810099
19 *23:34 *31:12 0.000221146
20 bm_10_01[1] *23:17 0.000125829
21 *338:A_N *345:A 4.51691e-05
22 *338:A_N *23:17 6.77746e-05
23 *338:A_N *23:34 7.0452e-05
24 *21:55 *23:17 0.000123912
*RES
1 *337:Y *23:6 13.8 
2 *23:6 *353:A 18.175 
3 *23:6 *23:17 5.13393 
4 *23:17 *345:A 14.9161 
5 *23:17 *23:34 15.3304 
6 *23:34 *348:A 21.6214 
7 *23:34 *346:A 9.3 
*END

*D_NET *24 0.000829161
*CONN
*I *354:A I *D sky130_fd_sc_hd__buf_2
*I *349:A I *D sky130_fd_sc_hd__clkbuf_1
*I *339:X O *D sky130_fd_sc_hd__and2b_1
*CAP
1 *354:A 0.000224868
2 *349:A 0.000120235
3 *339:X 0
4 *24:6 0.000345103
5 *349:A *360:A 2.89016e-05
6 *338:A_N *349:A 1.31516e-05
7 *338:A_N *354:A 6.74911e-05
8 *21:55 *349:A 2.94103e-05
*RES
1 *339:X *24:6 13.8 
2 *24:6 *349:A 16.1929 
3 *24:6 *354:A 17.6393 
*END

*D_NET *25 0.000337807
*CONN
*I *355:A I *D sky130_fd_sc_hd__buf_2
*I *345:X O *D sky130_fd_sc_hd__clkbuf_1
*CAP
1 *355:A 0.000103922
2 *345:X 0.000103922
3 bm_10_11[0] *355:A 1.99737e-05
4 *338:A_N *355:A 0.00010219
5 *23:34 *355:A 7.79781e-06
*RES
1 *345:X *355:A 29.7786 
*END

*D_NET *26 0.000829351
*CONN
*I *356:A I *D sky130_fd_sc_hd__buf_2
*I *347:A I *D sky130_fd_sc_hd__clkbuf_1
*I *338:X O *D sky130_fd_sc_hd__and2b_1
*CAP
1 *356:A 9.98559e-05
2 *347:A 0
3 *338:X 0.000153593
4 *26:10 0.000253449
5 *26:10 *31:12 0.000322453
*RES
1 *338:X *26:10 22.3714 
2 *26:10 *347:A 9.3 
3 *26:10 *356:A 10.6571 
*END

*D_NET *27 0.000441976
*CONN
*I *357:A I *D sky130_fd_sc_hd__buf_2
*I *346:X O *D sky130_fd_sc_hd__clkbuf_1
*CAP
1 *357:A 8.98086e-05
2 *346:X 8.98086e-05
3 *357:A *358:A 0.000128154
4 *357:A *360:A 0.000128154
5 *23:34 *357:A 6.05161e-06
*RES
1 *346:X *357:A 29.7786 
*END

*D_NET *28 0.00183202
*CONN
*I *358:A I *D sky130_fd_sc_hd__buf_2
*I *347:X O *D sky130_fd_sc_hd__clkbuf_1
*CAP
1 *358:A 0.000350536
2 *347:X 0.000350536
3 *358:A *359:A 0.000294191
4 *358:A *360:A 0.000233094
5 *358:A *31:12 0.00010326
6 bm_11_01[1] *358:A 4.29654e-05
7 bm_11_11[1] *358:A 0
8 *348:A *358:A 0.000176234
9 *357:A *358:A 0.000128154
10 *23:34 *358:A 0.000153047
*RES
1 *347:X *358:A 39.7964 
*END

*D_NET *29 0.000911092
*CONN
*I *359:A I *D sky130_fd_sc_hd__buf_2
*I *348:X O *D sky130_fd_sc_hd__clkbuf_1
*CAP
1 *359:A 0.00030845
2 *348:X 0.00030845
3 *358:A *359:A 0.000294191
*RES
1 *348:X *359:A 34.9393 
*END

*D_NET *30 0.00346231
*CONN
*I *360:A I *D sky130_fd_sc_hd__buf_2
*I *349:X O *D sky130_fd_sc_hd__clkbuf_1
*CAP
1 *360:A 0.000903872
2 *349:X 0.000903872
3 *360:A *339:A_N 7.43578e-06
4 *360:A *31:23 0.000151812
5 bm_10_01[1] *360:A 7.83659e-05
6 bm_10_11[1] *360:A 2.22043e-05
7 bm_11_01[0] *360:A 4.75911e-05
8 bm_11_11[1] *360:A 3.17067e-05
9 *349:A *360:A 2.89016e-05
10 *357:A *360:A 0.000128154
11 *358:A *360:A 0.000233094
12 *23:17 *360:A 0.000115206
13 *23:34 *360:A 0.000810099
*RES
1 *349:X *360:A 49.9214 
*END

*D_NET *31 0.00985495
*CONN
*I *339:A_N I *D sky130_fd_sc_hd__and2b_1
*I *334:B I *D sky130_fd_sc_hd__and2_1
*I *335:B I *D sky130_fd_sc_hd__nor2_1
*I *336:B I *D sky130_fd_sc_hd__xor2_1
*I *337:B I *D sky130_fd_sc_hd__xnor2_1
*I *338:B I *D sky130_fd_sc_hd__and2b_1
*I *351:X O *D sky130_fd_sc_hd__clkbuf_2
*CAP
1 *339:A_N 6.71396e-05
2 *334:B 3.04135e-05
3 *335:B 1.56658e-05
4 *336:B 5.18538e-05
5 *337:B 7.9256e-05
6 *338:B 0
7 *351:X 0.00175021
8 *31:48 0.000197458
9 *31:44 0.00069483
10 *31:29 0.000766867
11 *31:23 0.000581409
12 *31:12 0.00211134
13 *335:B *35:12 2.14658e-05
14 *336:B *35:12 7.61932e-05
15 *31:44 *344:A 0.000176234
16 *31:44 *367:A 1.17396e-05
17 *31:48 *343:A 9.01334e-05
18 *31:48 *344:A 4.56437e-05
19 *31:48 *362:A 0.000339217
20 *31:48 *367:A 0.000147834
21 bm_10_01[0] *31:44 2.26973e-05
22 bm_10_01[1] *31:23 0.00011891
23 bm_10_01[1] *31:29 0.000187812
24 *335:A *335:B 5.33005e-05
25 *335:A *336:B 0.000126572
26 *337:A *337:B 5.71472e-05
27 *338:A_N *31:23 6.09889e-05
28 *348:A *31:12 6.05161e-06
29 *352:A *31:44 0.000153047
30 *353:A *31:44 0.000349061
31 *358:A *31:12 0.00010326
32 *360:A *339:A_N 7.43578e-06
33 *360:A *31:23 0.000151812
34 *21:23 *336:B 2.37575e-05
35 *21:29 *31:48 2.59795e-05
36 *21:44 *334:B 5.33005e-05
37 *21:44 *337:B 0.000126566
38 *21:44 *31:29 0.000127766
39 *21:44 *31:44 0.000260085
40 *23:17 *31:29 7.47029e-06
41 *23:17 *31:44 3.34295e-05
42 *23:34 *31:12 0.000221146
43 *26:10 *31:12 0.000322453
*RES
1 *351:X *31:12 48.7464 
2 *31:12 *338:B 9.3 
3 *31:12 *31:23 11.9643 
4 *31:23 *31:29 8.30357 
5 *31:29 *337:B 11.0679 
6 *31:29 *31:44 19.5536 
7 *31:44 *31:48 9.48214 
8 *31:48 *336:B 11.0857 
9 *31:48 *335:B 9.83571 
10 *31:44 *334:B 14.3357 
11 *31:23 *339:A_N 14.7464 
*END

*D_NET *32 0.00497005
*CONN
*I *343:A I *D sky130_fd_sc_hd__clkbuf_1
*I *341:A I *D sky130_fd_sc_hd__clkbuf_1
*I *361:A I *D sky130_fd_sc_hd__buf_2
*I *340:A I *D sky130_fd_sc_hd__clkbuf_1
*I *336:X O *D sky130_fd_sc_hd__xor2_1
*CAP
1 *343:A 0.000240518
2 *341:A 4.26984e-05
3 *361:A 0.000141898
4 *340:A 0
5 *336:X 6.59538e-05
6 *32:16 0.000535001
7 *32:10 0.000601535
8 *32:8 0.000472205
9 *343:A *362:A 2.37761e-05
10 *361:A *362:A 0.000227729
11 *32:8 *35:12 9.90431e-05
12 *32:10 *362:A 0.000403495
13 *32:10 *364:A 0.000381977
14 *32:10 *35:12 0.000154486
15 *32:16 *362:A 0.000946065
16 *32:16 *364:A 0.000390483
17 *21:29 *343:A 0.000153054
18 *31:48 *343:A 9.01334e-05
*RES
1 *336:X *32:8 14.7464 
2 *32:8 *32:10 6.80357 
3 *32:10 *32:16 17 
4 *32:16 *340:A 9.3 
5 *32:16 *361:A 21.6929 
6 *32:10 *341:A 14.3357 
7 *32:8 *343:A 18.3179 
*END

*D_NET *33 0.00488594
*CONN
*I *344:A I *D sky130_fd_sc_hd__clkbuf_1
*I *362:A I *D sky130_fd_sc_hd__buf_2
*I *334:X O *D sky130_fd_sc_hd__and2_1
*CAP
1 *344:A 0.000151771
2 *362:A 0.00107777
3 *334:X 0
4 *33:6 0.00122954
5 *362:A *363:A 6.97972e-05
6 bm_00_10[1] *362:A 8.50795e-06
7 bm_01_00[0] *362:A 1.64552e-05
8 bm_01_00[1] *362:A 9.63175e-05
9 *343:A *362:A 2.37761e-05
10 *361:A *362:A 0.000227729
11 *21:44 *344:A 7.36267e-05
12 *31:44 *344:A 0.000176234
13 *31:48 *344:A 4.56437e-05
14 *31:48 *362:A 0.000339217
15 *32:10 *362:A 0.000403495
16 *32:16 *362:A 0.000946065
*RES
1 *334:X *33:6 13.8 
2 *33:6 *362:A 41.4071 
3 *33:6 *344:A 17.6036 
*END

*D_NET *34 0.000319761
*CONN
*I *363:A I *D sky130_fd_sc_hd__buf_2
*I *340:X O *D sky130_fd_sc_hd__clkbuf_1
*CAP
1 *363:A 9.11653e-05
2 *340:X 9.11653e-05
3 bm_00_10[0] *363:A 6.76337e-05
4 *362:A *363:A 6.97972e-05
*RES
1 *340:X *363:A 29.7786 
*END

*D_NET *35 0.00238078
*CONN
*I *342:A I *D sky130_fd_sc_hd__clkbuf_1
*I *364:A I *D sky130_fd_sc_hd__buf_2
*I *335:Y O *D sky130_fd_sc_hd__nor2_1
*CAP
1 *342:A 0
2 *364:A 0.000459329
3 *335:Y 0.000169237
4 *35:12 0.000628566
5 *335:B *35:12 2.14658e-05
6 *336:B *35:12 7.61932e-05
7 *32:8 *35:12 9.90431e-05
8 *32:10 *364:A 0.000381977
9 *32:10 *35:12 0.000154486
10 *32:16 *364:A 0.000390483
*RES
1 *335:Y *35:12 17.9429 
2 *35:12 *364:A 24.9964 
3 *35:12 *342:A 13.8 
*END

*D_NET *36 0.000146464
*CONN
*I *365:A I *D sky130_fd_sc_hd__buf_2
*I *341:X O *D sky130_fd_sc_hd__clkbuf_1
*CAP
1 *365:A 7.32319e-05
2 *341:X 7.32319e-05
*RES
1 *341:X *365:A 19.8679 
*END

*D_NET *37 0.000144865
*CONN
*I *366:A I *D sky130_fd_sc_hd__buf_2
*I *342:X O *D sky130_fd_sc_hd__clkbuf_1
*CAP
1 *366:A 7.24327e-05
2 *342:X 7.24327e-05
*RES
1 *342:X *366:A 19.8679 
*END

*D_NET *38 0.000638535
*CONN
*I *367:A I *D sky130_fd_sc_hd__buf_2
*I *343:X O *D sky130_fd_sc_hd__clkbuf_1
*CAP
1 *367:A 0.000147056
2 *343:X 0.000147056
3 bm_01_10[0] *367:A 0.000111732
4 *21:29 *367:A 1.78874e-05
5 *21:44 *367:A 5.52302e-05
6 *31:44 *367:A 1.17396e-05
7 *31:48 *367:A 0.000147834
*RES
1 *343:X *367:A 31.4571 
*END
