*SPEF "ieee 1481-1999"
*DESIGN "Path_Metric_Unit"
*DATE "19:01:24 Wednesday January 21, 2026"
*VENDOR "The OpenROAD Project"
*PROGRAM "OpenROAD"
*VERSION "edf00dff99f6c40d67a30c0e22a8191c5d2ed9d6"
*DESIGN_FLOW "NAME_SCOPE LOCAL" "PIN_CAP NONE"
*DIVIDER /
*DELIMITER :
*BUS_DELIMITER []
*T_UNIT 1 NS
*C_UNIT 1 PF
*R_UNIT 1 OHM
*L_UNIT 1 HENRY

*NAME_MAP
*3 bm_00_00[0]
*4 bm_00_00[1]
*5 bm_00_10[0]
*6 bm_00_10[1]
*7 bm_01_00[0]
*8 bm_01_00[1]
*9 bm_01_10[0]
*10 bm_01_10[1]
*11 bm_10_01[0]
*12 bm_10_01[1]
*13 bm_10_11[0]
*14 bm_10_11[1]
*15 bm_11_01[0]
*16 bm_11_01[1]
*17 bm_11_11[0]
*18 bm_11_11[1]
*19 clk
*20 clr_me
*21 current_metric_00[0]
*22 current_metric_00[1]
*23 current_metric_00[2]
*24 current_metric_00[3]
*25 current_metric_01[0]
*26 current_metric_01[1]
*27 current_metric_01[2]
*28 current_metric_01[3]
*29 current_metric_10[0]
*30 current_metric_10[1]
*31 current_metric_10[2]
*32 current_metric_10[3]
*33 current_metric_11[0]
*34 current_metric_11[1]
*35 current_metric_11[2]
*36 current_metric_11[3]
*37 rst_n
*38 servivor_select_00
*39 servivor_select_01
*40 servivor_select_10
*41 servivor_select_11
*42 _000_
*43 _001_
*44 _002_
*45 _003_
*46 _004_
*47 _005_
*48 _006_
*49 _007_
*50 _008_
*51 _009_
*52 _010_
*53 _011_
*54 _012_
*55 _013_
*56 _014_
*57 _015_
*58 _016_
*59 _017_
*60 _018_
*61 _019_
*62 _020_
*63 _021_
*64 _022_
*65 _023_
*66 _024_
*67 _025_
*68 _026_
*69 _027_
*70 _028_
*71 _029_
*72 _030_
*73 _031_
*74 _032_
*75 _033_
*76 _034_
*77 _035_
*78 _036_
*79 _037_
*80 _038_
*81 _039_
*82 _040_
*83 _041_
*84 _042_
*85 _043_
*86 _044_
*87 _045_
*88 _046_
*89 _047_
*90 _048_
*91 _049_
*92 _050_
*93 _051_
*94 _052_
*95 _053_
*96 _054_
*97 _055_
*98 _056_
*99 _057_
*100 _058_
*101 _059_
*102 _060_
*103 _061_
*104 _062_
*105 _063_
*106 _064_
*107 _065_
*108 _066_
*109 _067_
*110 _068_
*111 _069_
*112 _070_
*113 _071_
*114 _072_
*115 _073_
*116 _074_
*117 _075_
*118 _076_
*119 _077_
*120 _078_
*121 _079_
*122 _080_
*123 _081_
*124 _082_
*125 _083_
*126 _084_
*127 _085_
*128 _086_
*129 _087_
*130 _088_
*131 _089_
*132 _090_
*133 _091_
*134 _092_
*135 _093_
*136 _094_
*137 _095_
*138 _096_
*139 _097_
*140 _098_
*141 _099_
*142 _100_
*143 _101_
*144 _102_
*145 _103_
*146 _104_
*147 _105_
*148 _106_
*149 _107_
*150 _108_
*151 _109_
*152 _110_
*153 _111_
*154 _112_
*155 _113_
*156 _114_
*157 _115_
*158 _116_
*159 _117_
*160 _118_
*161 _119_
*162 _120_
*163 _121_
*164 _122_
*165 _123_
*166 _124_
*167 _125_
*168 _126_
*169 _127_
*170 _128_
*171 _129_
*172 _130_
*173 _131_
*174 _132_
*175 _133_
*176 _134_
*177 _135_
*178 _136_
*179 _137_
*180 _138_
*181 _139_
*182 _140_
*183 _141_
*184 clknet_0_clk
*185 clknet_1_0__leaf_clk
*186 clknet_1_1__leaf_clk
*187 net1
*188 net10
*189 net11
*190 net12
*191 net13
*192 net14
*193 net15
*194 net16
*195 net17
*196 net18
*197 net19
*198 net2
*199 net20
*200 net21
*201 net22
*202 net23
*203 net24
*204 net25
*205 net26
*206 net27
*207 net28
*208 net29
*209 net3
*210 net30
*211 net31
*212 net32
*213 net33
*214 net34
*215 net35
*216 net36
*217 net37
*218 net38
*219 net39
*220 net4
*221 net40
*222 net41
*223 net42
*224 net43
*225 net44
*226 net45
*227 net5
*228 net6
*229 net7
*230 net8
*231 net9
*232 FILLER_0_102
*233 FILLER_0_107
*234 FILLER_0_111
*235 FILLER_0_113
*236 FILLER_0_120
*237 FILLER_0_128
*238 FILLER_0_133
*239 FILLER_0_139
*240 FILLER_0_141
*241 FILLER_0_146
*242 FILLER_0_154
*243 FILLER_0_159
*244 FILLER_0_167
*245 FILLER_0_17
*246 FILLER_0_173
*247 FILLER_0_185
*248 FILLER_0_27
*249 FILLER_0_41
*250 FILLER_0_55
*251 FILLER_0_60
*252 FILLER_0_81
*253 FILLER_0_85
*254 FILLER_0_89
*255 FILLER_0_94
*256 FILLER_10_109
*257 FILLER_10_121
*258 FILLER_10_133
*259 FILLER_10_139
*260 FILLER_10_141
*261 FILLER_10_153
*262 FILLER_10_165
*263 FILLER_10_177
*264 FILLER_10_185
*265 FILLER_10_3
*266 FILLER_10_52
*267 FILLER_10_7
*268 FILLER_10_81
*269 FILLER_10_85
*270 FILLER_10_97
*271 FILLER_11_104
*272 FILLER_11_113
*273 FILLER_11_125
*274 FILLER_11_137
*275 FILLER_11_14
*276 FILLER_11_149
*277 FILLER_11_161
*278 FILLER_11_167
*279 FILLER_11_169
*280 FILLER_11_181
*281 FILLER_11_189
*282 FILLER_11_21
*283 FILLER_11_29
*284 FILLER_11_55
*285 FILLER_11_6
*286 FILLER_11_80
*287 FILLER_11_92
*288 FILLER_12_109
*289 FILLER_12_121
*290 FILLER_12_133
*291 FILLER_12_139
*292 FILLER_12_141
*293 FILLER_12_15
*294 FILLER_12_153
*295 FILLER_12_165
*296 FILLER_12_177
*297 FILLER_12_189
*298 FILLER_12_27
*299 FILLER_12_29
*300 FILLER_12_3
*301 FILLER_12_44
*302 FILLER_12_53
*303 FILLER_12_77
*304 FILLER_12_83
*305 FILLER_12_85
*306 FILLER_12_97
*307 FILLER_13_109
*308 FILLER_13_113
*309 FILLER_13_125
*310 FILLER_13_137
*311 FILLER_13_149
*312 FILLER_13_161
*313 FILLER_13_167
*314 FILLER_13_169
*315 FILLER_13_18
*316 FILLER_13_181
*317 FILLER_13_189
*318 FILLER_13_37
*319 FILLER_13_6
*320 FILLER_13_60
*321 FILLER_13_64
*322 FILLER_13_85
*323 FILLER_13_97
*324 FILLER_14_109
*325 FILLER_14_121
*326 FILLER_14_133
*327 FILLER_14_139
*328 FILLER_14_141
*329 FILLER_14_153
*330 FILLER_14_165
*331 FILLER_14_177
*332 FILLER_14_189
*333 FILLER_14_3
*334 FILLER_14_41
*335 FILLER_14_81
*336 FILLER_14_85
*337 FILLER_14_97
*338 FILLER_15_104
*339 FILLER_15_113
*340 FILLER_15_125
*341 FILLER_15_137
*342 FILLER_15_149
*343 FILLER_15_16
*344 FILLER_15_161
*345 FILLER_15_167
*346 FILLER_15_169
*347 FILLER_15_181
*348 FILLER_15_189
*349 FILLER_15_31
*350 FILLER_15_57
*351 FILLER_15_6
*352 FILLER_15_80
*353 FILLER_15_92
*354 FILLER_16_10
*355 FILLER_16_109
*356 FILLER_16_121
*357 FILLER_16_133
*358 FILLER_16_139
*359 FILLER_16_141
*360 FILLER_16_153
*361 FILLER_16_165
*362 FILLER_16_177
*363 FILLER_16_189
*364 FILLER_16_24
*365 FILLER_16_33
*366 FILLER_16_48
*367 FILLER_16_81
*368 FILLER_16_85
*369 FILLER_16_97
*370 FILLER_17_106
*371 FILLER_17_11
*372 FILLER_17_113
*373 FILLER_17_125
*374 FILLER_17_137
*375 FILLER_17_149
*376 FILLER_17_161
*377 FILLER_17_167
*378 FILLER_17_169
*379 FILLER_17_181
*380 FILLER_17_189
*381 FILLER_17_3
*382 FILLER_17_82
*383 FILLER_17_94
*384 FILLER_18_109
*385 FILLER_18_11
*386 FILLER_18_121
*387 FILLER_18_133
*388 FILLER_18_139
*389 FILLER_18_141
*390 FILLER_18_153
*391 FILLER_18_165
*392 FILLER_18_177
*393 FILLER_18_189
*394 FILLER_18_20
*395 FILLER_18_29
*396 FILLER_18_33
*397 FILLER_18_85
*398 FILLER_18_97
*399 FILLER_19_10
*400 FILLER_19_102
*401 FILLER_19_110
*402 FILLER_19_113
*403 FILLER_19_125
*404 FILLER_19_137
*405 FILLER_19_149
*406 FILLER_19_161
*407 FILLER_19_167
*408 FILLER_19_169
*409 FILLER_19_181
*410 FILLER_19_185
*411 FILLER_19_27
*412 FILLER_19_38
*413 FILLER_19_52
*414 FILLER_19_57
*415 FILLER_19_66
*416 FILLER_19_90
*417 FILLER_1_10
*418 FILLER_1_107
*419 FILLER_1_111
*420 FILLER_1_113
*421 FILLER_1_125
*422 FILLER_1_137
*423 FILLER_1_149
*424 FILLER_1_161
*425 FILLER_1_167
*426 FILLER_1_169
*427 FILLER_1_181
*428 FILLER_1_185
*429 FILLER_1_26
*430 FILLER_1_49
*431 FILLER_1_83
*432 FILLER_1_95
*433 FILLER_20_10
*434 FILLER_20_109
*435 FILLER_20_121
*436 FILLER_20_133
*437 FILLER_20_139
*438 FILLER_20_141
*439 FILLER_20_153
*440 FILLER_20_165
*441 FILLER_20_177
*442 FILLER_20_189
*443 FILLER_20_6
*444 FILLER_20_75
*445 FILLER_20_83
*446 FILLER_20_85
*447 FILLER_20_97
*448 FILLER_21_108
*449 FILLER_21_113
*450 FILLER_21_125
*451 FILLER_21_137
*452 FILLER_21_149
*453 FILLER_21_15
*454 FILLER_21_161
*455 FILLER_21_167
*456 FILLER_21_169
*457 FILLER_21_181
*458 FILLER_21_189
*459 FILLER_21_24
*460 FILLER_21_3
*461 FILLER_21_36
*462 FILLER_21_57
*463 FILLER_21_75
*464 FILLER_21_79
*465 FILLER_21_84
*466 FILLER_21_96
*467 FILLER_22_109
*468 FILLER_22_121
*469 FILLER_22_133
*470 FILLER_22_139
*471 FILLER_22_14
*472 FILLER_22_141
*473 FILLER_22_153
*474 FILLER_22_165
*475 FILLER_22_177
*476 FILLER_22_189
*477 FILLER_22_29
*478 FILLER_22_6
*479 FILLER_22_72
*480 FILLER_22_85
*481 FILLER_22_97
*482 FILLER_23_104
*483 FILLER_23_113
*484 FILLER_23_125
*485 FILLER_23_137
*486 FILLER_23_149
*487 FILLER_23_161
*488 FILLER_23_167
*489 FILLER_23_169
*490 FILLER_23_181
*491 FILLER_23_189
*492 FILLER_23_3
*493 FILLER_23_32
*494 FILLER_23_52
*495 FILLER_23_80
*496 FILLER_23_92
*497 FILLER_24_109
*498 FILLER_24_121
*499 FILLER_24_133
*500 FILLER_24_139
*501 FILLER_24_14
*502 FILLER_24_141
*503 FILLER_24_153
*504 FILLER_24_165
*505 FILLER_24_177
*506 FILLER_24_189
*507 FILLER_24_23
*508 FILLER_24_27
*509 FILLER_24_29
*510 FILLER_24_41
*511 FILLER_24_53
*512 FILLER_24_6
*513 FILLER_24_65
*514 FILLER_24_72
*515 FILLER_24_85
*516 FILLER_24_97
*517 FILLER_25_105
*518 FILLER_25_111
*519 FILLER_25_113
*520 FILLER_25_125
*521 FILLER_25_137
*522 FILLER_25_149
*523 FILLER_25_15
*524 FILLER_25_161
*525 FILLER_25_167
*526 FILLER_25_169
*527 FILLER_25_181
*528 FILLER_25_189
*529 FILLER_25_27
*530 FILLER_25_3
*531 FILLER_25_39
*532 FILLER_25_51
*533 FILLER_25_55
*534 FILLER_25_57
*535 FILLER_25_69
*536 FILLER_25_81
*537 FILLER_25_93
*538 FILLER_26_109
*539 FILLER_26_121
*540 FILLER_26_133
*541 FILLER_26_139
*542 FILLER_26_141
*543 FILLER_26_15
*544 FILLER_26_153
*545 FILLER_26_165
*546 FILLER_26_177
*547 FILLER_26_189
*548 FILLER_26_27
*549 FILLER_26_29
*550 FILLER_26_3
*551 FILLER_26_41
*552 FILLER_26_53
*553 FILLER_26_65
*554 FILLER_26_77
*555 FILLER_26_83
*556 FILLER_26_85
*557 FILLER_26_97
*558 FILLER_27_109
*559 FILLER_27_113
*560 FILLER_27_12
*561 FILLER_27_125
*562 FILLER_27_137
*563 FILLER_27_141
*564 FILLER_27_153
*565 FILLER_27_165
*566 FILLER_27_172
*567 FILLER_27_184
*568 FILLER_27_24
*569 FILLER_27_29
*570 FILLER_27_41
*571 FILLER_27_53
*572 FILLER_27_57
*573 FILLER_27_69
*574 FILLER_27_81
*575 FILLER_27_85
*576 FILLER_27_97
*577 FILLER_2_106
*578 FILLER_2_118
*579 FILLER_2_130
*580 FILLER_2_138
*581 FILLER_2_141
*582 FILLER_2_153
*583 FILLER_2_165
*584 FILLER_2_177
*585 FILLER_2_18
*586 FILLER_2_189
*587 FILLER_2_29
*588 FILLER_2_7
*589 FILLER_2_94
*590 FILLER_3_100
*591 FILLER_3_11
*592 FILLER_3_113
*593 FILLER_3_125
*594 FILLER_3_137
*595 FILLER_3_149
*596 FILLER_3_161
*597 FILLER_3_167
*598 FILLER_3_169
*599 FILLER_3_181
*600 FILLER_3_189
*601 FILLER_3_21
*602 FILLER_3_54
*603 FILLER_3_57
*604 FILLER_3_88
*605 FILLER_4_10
*606 FILLER_4_109
*607 FILLER_4_121
*608 FILLER_4_133
*609 FILLER_4_139
*610 FILLER_4_141
*611 FILLER_4_153
*612 FILLER_4_165
*613 FILLER_4_177
*614 FILLER_4_189
*615 FILLER_4_24
*616 FILLER_4_37
*617 FILLER_4_45
*618 FILLER_4_70
*619 FILLER_4_82
*620 FILLER_4_85
*621 FILLER_4_97
*622 FILLER_5_101
*623 FILLER_5_109
*624 FILLER_5_113
*625 FILLER_5_125
*626 FILLER_5_137
*627 FILLER_5_149
*628 FILLER_5_15
*629 FILLER_5_161
*630 FILLER_5_167
*631 FILLER_5_169
*632 FILLER_5_181
*633 FILLER_5_189
*634 FILLER_5_3
*635 FILLER_5_50
*636 FILLER_5_7
*637 FILLER_5_77
*638 FILLER_5_89
*639 FILLER_6_106
*640 FILLER_6_118
*641 FILLER_6_13
*642 FILLER_6_130
*643 FILLER_6_138
*644 FILLER_6_141
*645 FILLER_6_153
*646 FILLER_6_165
*647 FILLER_6_177
*648 FILLER_6_189
*649 FILLER_6_22
*650 FILLER_6_29
*651 FILLER_6_57
*652 FILLER_6_80
*653 FILLER_7_110
*654 FILLER_7_113
*655 FILLER_7_125
*656 FILLER_7_137
*657 FILLER_7_149
*658 FILLER_7_161
*659 FILLER_7_167
*660 FILLER_7_169
*661 FILLER_7_181
*662 FILLER_7_189
*663 FILLER_7_20
*664 FILLER_7_28
*665 FILLER_7_3
*666 FILLER_7_86
*667 FILLER_7_98
*668 FILLER_8_106
*669 FILLER_8_11
*670 FILLER_8_118
*671 FILLER_8_130
*672 FILLER_8_138
*673 FILLER_8_141
*674 FILLER_8_153
*675 FILLER_8_165
*676 FILLER_8_177
*677 FILLER_8_18
*678 FILLER_8_189
*679 FILLER_8_24
*680 FILLER_8_29
*681 FILLER_8_3
*682 FILLER_8_82
*683 FILLER_9_100
*684 FILLER_9_113
*685 FILLER_9_125
*686 FILLER_9_137
*687 FILLER_9_149
*688 FILLER_9_161
*689 FILLER_9_167
*690 FILLER_9_169
*691 FILLER_9_181
*692 FILLER_9_189
*693 FILLER_9_30
*694 FILLER_9_57
*695 FILLER_9_6
*696 PHY_EDGE_ROW_0_Left_28
*697 PHY_EDGE_ROW_0_Right_0
*698 PHY_EDGE_ROW_10_Left_38
*699 PHY_EDGE_ROW_10_Right_10
*700 PHY_EDGE_ROW_11_Left_39
*701 PHY_EDGE_ROW_11_Right_11
*702 PHY_EDGE_ROW_12_Left_40
*703 PHY_EDGE_ROW_12_Right_12
*704 PHY_EDGE_ROW_13_Left_41
*705 PHY_EDGE_ROW_13_Right_13
*706 PHY_EDGE_ROW_14_Left_42
*707 PHY_EDGE_ROW_14_Right_14
*708 PHY_EDGE_ROW_15_Left_43
*709 PHY_EDGE_ROW_15_Right_15
*710 PHY_EDGE_ROW_16_Left_44
*711 PHY_EDGE_ROW_16_Right_16
*712 PHY_EDGE_ROW_17_Left_45
*713 PHY_EDGE_ROW_17_Right_17
*714 PHY_EDGE_ROW_18_Left_46
*715 PHY_EDGE_ROW_18_Right_18
*716 PHY_EDGE_ROW_19_Left_47
*717 PHY_EDGE_ROW_19_Right_19
*718 PHY_EDGE_ROW_1_Left_29
*719 PHY_EDGE_ROW_1_Right_1
*720 PHY_EDGE_ROW_20_Left_48
*721 PHY_EDGE_ROW_20_Right_20
*722 PHY_EDGE_ROW_21_Left_49
*723 PHY_EDGE_ROW_21_Right_21
*724 PHY_EDGE_ROW_22_Left_50
*725 PHY_EDGE_ROW_22_Right_22
*726 PHY_EDGE_ROW_23_Left_51
*727 PHY_EDGE_ROW_23_Right_23
*728 PHY_EDGE_ROW_24_Left_52
*729 PHY_EDGE_ROW_24_Right_24
*730 PHY_EDGE_ROW_25_Left_53
*731 PHY_EDGE_ROW_25_Right_25
*732 PHY_EDGE_ROW_26_Left_54
*733 PHY_EDGE_ROW_26_Right_26
*734 PHY_EDGE_ROW_27_Left_55
*735 PHY_EDGE_ROW_27_Right_27
*736 PHY_EDGE_ROW_2_Left_30
*737 PHY_EDGE_ROW_2_Right_2
*738 PHY_EDGE_ROW_3_Left_31
*739 PHY_EDGE_ROW_3_Right_3
*740 PHY_EDGE_ROW_4_Left_32
*741 PHY_EDGE_ROW_4_Right_4
*742 PHY_EDGE_ROW_5_Left_33
*743 PHY_EDGE_ROW_5_Right_5
*744 PHY_EDGE_ROW_6_Left_34
*745 PHY_EDGE_ROW_6_Right_6
*746 PHY_EDGE_ROW_7_Left_35
*747 PHY_EDGE_ROW_7_Right_7
*748 PHY_EDGE_ROW_8_Left_36
*749 PHY_EDGE_ROW_8_Right_8
*750 PHY_EDGE_ROW_9_Left_37
*751 PHY_EDGE_ROW_9_Right_9
*752 TAP_TAPCELL_ROW_0_56
*753 TAP_TAPCELL_ROW_0_57
*754 TAP_TAPCELL_ROW_0_58
*755 TAP_TAPCELL_ROW_0_59
*756 TAP_TAPCELL_ROW_0_60
*757 TAP_TAPCELL_ROW_0_61
*758 TAP_TAPCELL_ROW_10_89
*759 TAP_TAPCELL_ROW_10_90
*760 TAP_TAPCELL_ROW_10_91
*761 TAP_TAPCELL_ROW_11_92
*762 TAP_TAPCELL_ROW_11_93
*763 TAP_TAPCELL_ROW_11_94
*764 TAP_TAPCELL_ROW_12_95
*765 TAP_TAPCELL_ROW_12_96
*766 TAP_TAPCELL_ROW_12_97
*767 TAP_TAPCELL_ROW_13_100
*768 TAP_TAPCELL_ROW_13_98
*769 TAP_TAPCELL_ROW_13_99
*770 TAP_TAPCELL_ROW_14_101
*771 TAP_TAPCELL_ROW_14_102
*772 TAP_TAPCELL_ROW_14_103
*773 TAP_TAPCELL_ROW_15_104
*774 TAP_TAPCELL_ROW_15_105
*775 TAP_TAPCELL_ROW_15_106
*776 TAP_TAPCELL_ROW_16_107
*777 TAP_TAPCELL_ROW_16_108
*778 TAP_TAPCELL_ROW_16_109
*779 TAP_TAPCELL_ROW_17_110
*780 TAP_TAPCELL_ROW_17_111
*781 TAP_TAPCELL_ROW_17_112
*782 TAP_TAPCELL_ROW_18_113
*783 TAP_TAPCELL_ROW_18_114
*784 TAP_TAPCELL_ROW_18_115
*785 TAP_TAPCELL_ROW_19_116
*786 TAP_TAPCELL_ROW_19_117
*787 TAP_TAPCELL_ROW_19_118
*788 TAP_TAPCELL_ROW_1_62
*789 TAP_TAPCELL_ROW_1_63
*790 TAP_TAPCELL_ROW_1_64
*791 TAP_TAPCELL_ROW_20_119
*792 TAP_TAPCELL_ROW_20_120
*793 TAP_TAPCELL_ROW_20_121
*794 TAP_TAPCELL_ROW_21_122
*795 TAP_TAPCELL_ROW_21_123
*796 TAP_TAPCELL_ROW_21_124
*797 TAP_TAPCELL_ROW_22_125
*798 TAP_TAPCELL_ROW_22_126
*799 TAP_TAPCELL_ROW_22_127
*800 TAP_TAPCELL_ROW_23_128
*801 TAP_TAPCELL_ROW_23_129
*802 TAP_TAPCELL_ROW_23_130
*803 TAP_TAPCELL_ROW_24_131
*804 TAP_TAPCELL_ROW_24_132
*805 TAP_TAPCELL_ROW_24_133
*806 TAP_TAPCELL_ROW_25_134
*807 TAP_TAPCELL_ROW_25_135
*808 TAP_TAPCELL_ROW_25_136
*809 TAP_TAPCELL_ROW_26_137
*810 TAP_TAPCELL_ROW_26_138
*811 TAP_TAPCELL_ROW_26_139
*812 TAP_TAPCELL_ROW_27_140
*813 TAP_TAPCELL_ROW_27_141
*814 TAP_TAPCELL_ROW_27_142
*815 TAP_TAPCELL_ROW_27_143
*816 TAP_TAPCELL_ROW_27_144
*817 TAP_TAPCELL_ROW_27_145
*818 TAP_TAPCELL_ROW_2_65
*819 TAP_TAPCELL_ROW_2_66
*820 TAP_TAPCELL_ROW_2_67
*821 TAP_TAPCELL_ROW_3_68
*822 TAP_TAPCELL_ROW_3_69
*823 TAP_TAPCELL_ROW_3_70
*824 TAP_TAPCELL_ROW_4_71
*825 TAP_TAPCELL_ROW_4_72
*826 TAP_TAPCELL_ROW_4_73
*827 TAP_TAPCELL_ROW_5_74
*828 TAP_TAPCELL_ROW_5_75
*829 TAP_TAPCELL_ROW_5_76
*830 TAP_TAPCELL_ROW_6_77
*831 TAP_TAPCELL_ROW_6_78
*832 TAP_TAPCELL_ROW_6_79
*833 TAP_TAPCELL_ROW_7_80
*834 TAP_TAPCELL_ROW_7_81
*835 TAP_TAPCELL_ROW_7_82
*836 TAP_TAPCELL_ROW_8_83
*837 TAP_TAPCELL_ROW_8_84
*838 TAP_TAPCELL_ROW_8_85
*839 TAP_TAPCELL_ROW_9_86
*840 TAP_TAPCELL_ROW_9_87
*841 TAP_TAPCELL_ROW_9_88
*842 _142_
*843 _143_
*844 _144_
*845 _145_
*846 _146_
*847 _147_
*848 _148_
*849 _149_
*850 _150_
*851 _151_
*852 _152_
*853 _153_
*854 _154_
*855 _155_
*856 _156_
*857 _157_
*858 _158_
*859 _159_
*860 _160_
*861 _161_
*862 _162_
*863 _163_
*864 _164_
*865 _165_
*866 _166_
*867 _167_
*868 _168_
*869 _169_
*870 _170_
*871 _171_
*872 _172_
*873 _173_
*874 _174_
*875 _175_
*876 _176_
*877 _177_
*878 _178_
*879 _179_
*880 _180_
*881 _181_
*882 _182_
*883 _183_
*884 _184_
*885 _185_
*886 _186_
*887 _187_
*888 _188_
*889 _189_
*890 _190_
*891 _191_
*892 _192_
*893 _193_
*894 _194_
*895 _195_
*896 _196_
*897 _197_
*898 _198_
*899 _199_
*900 _200_
*901 _201_
*902 _202_
*903 _203_
*904 _204_
*905 _205_
*906 _206_
*907 _207_
*908 _208_
*909 _209_
*910 _210_
*911 _211_
*912 _212_
*913 _213_
*914 _214_
*915 _215_
*916 _216_
*917 _217_
*918 _218_
*919 _219_
*920 _220_
*921 _221_
*922 _222_
*923 _223_
*924 _224_
*925 _225_
*926 _226_
*927 _227_
*928 _228_
*929 _229_
*930 _230_
*931 _231_
*932 _232_
*933 _233_
*934 _234_
*935 _235_
*936 _236_
*937 _237_
*938 _238_
*939 _239_
*940 _240_
*941 _241_
*942 _242_
*943 _243_
*944 _244_
*945 _245_
*946 _246_
*947 _247_
*948 _248_
*949 _249_
*950 _250_
*951 _251_
*952 _252_
*953 _253_
*954 _254_
*955 _255_
*956 _256_
*957 _257_
*958 _258_
*959 _259_
*960 _260_
*961 _261_
*962 _262_
*963 _263_
*964 _264_
*965 _265_
*966 _266_
*967 _267_
*968 _268_
*969 _269_
*970 _270_
*971 _271_
*972 _272_
*973 _273_
*974 _274_
*975 _275_
*976 _276_
*977 _277_
*978 _278_
*979 _279_
*980 _280_
*981 _281_
*982 _282_
*983 _283_
*984 _284_
*985 _285_
*986 _286_
*987 _287_
*988 _288_
*989 _289_
*990 _290_
*991 _291_
*992 _292_
*993 _293_
*994 _294_
*995 _295_
*996 _296_
*997 _297_
*998 _298_
*999 _299_
*1000 _300_
*1001 _301_
*1002 _302_
*1003 _303_
*1004 clkbuf_0_clk
*1005 clkbuf_1_0__f_clk
*1006 clkbuf_1_1__f_clk
*1007 clkload0
*1008 fanout42
*1009 fanout43
*1010 fanout44
*1011 fanout45
*1012 input1
*1013 input10
*1014 input11
*1015 input12
*1016 input13
*1017 input14
*1018 input15
*1019 input16
*1020 input17
*1021 input18
*1022 input2
*1023 input3
*1024 input4
*1025 input5
*1026 input6
*1027 input7
*1028 input8
*1029 input9
*1030 max_cap39
*1031 max_cap40
*1032 max_cap41
*1033 output19
*1034 output20
*1035 output21
*1036 output22
*1037 output23
*1038 output24
*1039 output25
*1040 output26
*1041 output27
*1042 output28
*1043 output29
*1044 output30
*1045 output31
*1046 output32
*1047 output33
*1048 output34
*1049 output35
*1050 output36
*1051 output37
*1052 output38

*PORTS
bm_00_00[0] I
bm_00_00[1] I
bm_00_10[0] I
bm_00_10[1] I
bm_01_00[0] I
bm_01_00[1] I
bm_01_10[0] I
bm_01_10[1] I
bm_10_01[0] I
bm_10_01[1] I
bm_10_11[0] I
bm_10_11[1] I
bm_11_01[0] I
bm_11_01[1] I
bm_11_11[0] I
bm_11_11[1] I
clk I
clr_me I
current_metric_00[0] O
current_metric_00[1] O
current_metric_00[2] O
current_metric_00[3] O
current_metric_01[0] O
current_metric_01[1] O
current_metric_01[2] O
current_metric_01[3] O
current_metric_10[0] O
current_metric_10[1] O
current_metric_10[2] O
current_metric_10[3] O
current_metric_11[0] O
current_metric_11[1] O
current_metric_11[2] O
current_metric_11[3] O
rst_n I
servivor_select_00 O
servivor_select_01 O
servivor_select_10 O
servivor_select_11 O

*D_NET *3 0.00380012
*CONN
*P bm_00_00[0] I
*I *1012:A I *D sky130_fd_sc_hd__clkbuf_1
*CAP
1 bm_00_00[0] 0.00130617
2 *1012:A 0.00130617
3 *1012:A current_metric_00[0] 8.27184e-06
4 *1012:A current_metric_00[1] 0
5 *1012:A *1022:A 0.000897083
6 *1012:A *101:14 0.00012401
7 *1012:A *198:20 0.000150618
8 *1012:A *199:14 7.79781e-06
*RES
1 bm_00_00[0] *1012:A 48.3365 
*END

*D_NET *4 0.00342793
*CONN
*P bm_00_00[1] I
*I *1022:A I *D sky130_fd_sc_hd__clkbuf_1
*CAP
1 bm_00_00[1] 0.000775981
2 *1022:A 0.000775981
3 *1022:A current_metric_00[0] 2.51343e-06
4 *1022:A current_metric_00[1] 0
5 *1022:A *930:B 0
6 *1022:A *954:B 9.57064e-05
7 *1022:A *1023:A 0
8 *1022:A *1033:A 4.43256e-05
9 *1022:A *101:14 7.92975e-05
10 *1022:A *120:10 2.22891e-05
11 *1022:A *197:56 0.000315158
12 *1022:A *199:14 0.000215049
13 *1022:A *199:20 0.00020455
14 *1012:A *1022:A 0.000897083
*RES
1 bm_00_00[1] *1022:A 43.4271 
*END

*D_NET *5 0.00100313
*CONN
*P bm_00_10[0] I
*I *1023:A I *D sky130_fd_sc_hd__buf_1
*CAP
1 bm_00_10[0] 0.000355184
2 *1023:A 0.000355184
3 *1023:A current_metric_00[0] 0.000292765
4 *1023:A *1024:A 0
5 *1022:A *1023:A 0
*RES
1 bm_00_10[0] *1023:A 23.619 
*END

*D_NET *6 0.000609224
*CONN
*P bm_00_10[1] I
*I *1024:A I *D sky130_fd_sc_hd__clkbuf_1
*CAP
1 bm_00_10[1] 0.000304612
2 *1024:A 0.000304612
3 *1024:A *1025:A 0
4 *1024:A *199:12 0
5 *1023:A *1024:A 0
*RES
1 bm_00_10[1] *1024:A 21.494 
*END

*D_NET *7 0.000474578
*CONN
*P bm_01_00[0] I
*I *1025:A I *D sky130_fd_sc_hd__buf_1
*CAP
1 bm_01_00[0] 0.000237289
2 *1025:A 0.000237289
3 *1024:A *1025:A 0
*RES
1 bm_01_00[0] *1025:A 20.2797 
*END

*D_NET *8 0.000694646
*CONN
*P bm_01_00[1] I
*I *1026:A I *D sky130_fd_sc_hd__buf_1
*CAP
1 bm_01_00[1] 0.000347323
2 *1026:A 0.000347323
3 *1026:A *1027:A 0
*RES
1 bm_01_00[1] *1026:A 22.4047 
*END

*D_NET *9 0.000598176
*CONN
*P bm_01_10[0] I
*I *1027:A I *D sky130_fd_sc_hd__buf_1
*CAP
1 bm_01_10[0] 0.000299088
2 *1027:A 0.000299088
3 *1027:A *895:B 0
4 *1027:A *1028:A 0
5 *1026:A *1027:A 0
*RES
1 bm_01_10[0] *1027:A 19.6407 
*END

*D_NET *10 0.000561402
*CONN
*P bm_01_10[1] I
*I *1028:A I *D sky130_fd_sc_hd__buf_1
*CAP
1 bm_01_10[1] 0.000280701
2 *1028:A 0.000280701
3 *1028:A *1029:A 0
4 *1027:A *1028:A 0
*RES
1 bm_01_10[1] *1028:A 21.1905 
*END

*D_NET *11 0.000511053
*CONN
*P bm_10_01[0] I
*I *1029:A I *D sky130_fd_sc_hd__buf_1
*CAP
1 bm_10_01[0] 0.000255526
2 *1029:A 0.000255526
3 *1029:A *1013:A 0
4 *1028:A *1029:A 0
*RES
1 bm_10_01[0] *1029:A 20.5833 
*END

*D_NET *12 0.000668651
*CONN
*P bm_10_01[1] I
*I *1013:A I *D sky130_fd_sc_hd__clkbuf_1
*CAP
1 bm_10_01[1] 0.000334326
2 *1013:A 0.000334326
3 *1013:A *1014:A 0
4 *1013:A *191:14 0
5 *1029:A *1013:A 0
*RES
1 bm_10_01[1] *1013:A 22.1012 
*END

*D_NET *13 0.000600173
*CONN
*P bm_10_11[0] I
*I *1014:A I *D sky130_fd_sc_hd__clkbuf_1
*CAP
1 bm_10_11[0] 0.000300087
2 *1014:A 0.000300087
3 *1014:A *1015:A 0
4 *1014:A *191:14 0
5 *1013:A *1014:A 0
*RES
1 bm_10_11[0] *1014:A 21.494 
*END

*D_NET *14 0.000531695
*CONN
*P bm_10_11[1] I
*I *1015:A I *D sky130_fd_sc_hd__buf_1
*CAP
1 bm_10_11[1] 0.000265848
2 *1015:A 0.000265848
3 *1015:A *1016:A 0
4 *1015:A *191:14 0
5 *1014:A *1015:A 0
*RES
1 bm_10_11[1] *1015:A 20.8869 
*END

*D_NET *15 0.000478331
*CONN
*P bm_11_01[0] I
*I *1016:A I *D sky130_fd_sc_hd__buf_1
*CAP
1 bm_11_01[0] 0.000239165
2 *1016:A 0.000239165
3 *1016:A *1017:A 0
4 *1015:A *1016:A 0
*RES
1 bm_11_01[0] *1016:A 20.2797 
*END

*D_NET *16 0.000945554
*CONN
*P bm_11_01[1] I
*I *1017:A I *D sky130_fd_sc_hd__buf_1
*CAP
1 bm_11_01[1] 0.000255913
2 *1017:A 0.000255913
3 *1017:A *1018:A 0.000229456
4 *1017:A *1019:A 0.000204273
5 *1016:A *1017:A 0
*RES
1 bm_11_01[1] *1017:A 22.4047 
*END

*D_NET *17 0.00129001
*CONN
*P bm_11_11[0] I
*I *1018:A I *D sky130_fd_sc_hd__buf_1
*CAP
1 bm_11_11[0] 0.000370143
2 *1018:A 0.000370143
3 *1018:A *1019:A 0.000320269
4 *1017:A *1018:A 0.000229456
*RES
1 bm_11_11[0] *1018:A 24.3339 
*END

*D_NET *18 0.00209939
*CONN
*P bm_11_11[1] I
*I *1019:A I *D sky130_fd_sc_hd__buf_1
*CAP
1 bm_11_11[1] 0.000681759
2 *1019:A 0.000681759
3 *1019:A *192:14 0.000188586
4 *1019:A *193:12 2.27416e-05
5 *1017:A *1019:A 0.000204273
6 *1018:A *1019:A 0.000320269
*RES
1 bm_11_11[1] *1019:A 31.2989 
*END

*D_NET *19 0.0055949
*CONN
*P clk I
*I *1004:A I *D sky130_fd_sc_hd__clkbuf_16
*CAP
1 clk 0.00224823
2 *1004:A 0.000499709
3 *19:7 0.00274794
4 *1004:A *907:A 1.74352e-05
5 *1004:A *907:B 5.71472e-05
6 *1004:A *973:C1 2.44318e-05
7 *19:7 *207:12 0
*RES
1 clk *19:7 46 
2 *19:7 *1004:A 17.2286 
*END

*D_NET *20 0.00101368
*CONN
*P clr_me I
*I *1020:A I *D sky130_fd_sc_hd__clkbuf_1
*CAP
1 clr_me 0.000490986
2 *1020:A 0.000490986
3 *1020:A *193:12 3.17067e-05
*RES
1 clr_me *1020:A 23.6571 
*END

*D_NET *21 0.00179957
*CONN
*P current_metric_00[0] O
*I *1033:X O *D sky130_fd_sc_hd__buf_2
*CAP
1 current_metric_00[0] 0.000748008
2 *1033:X 0.000748008
3 *1012:A current_metric_00[0] 8.27184e-06
4 *1022:A current_metric_00[0] 2.51343e-06
5 *1023:A current_metric_00[0] 0.000292765
*RES
1 *1033:X current_metric_00[0] 28.1393 
*END

*D_NET *22 0.00196097
*CONN
*P current_metric_00[1] O
*I *1034:X O *D sky130_fd_sc_hd__buf_2
*CAP
1 current_metric_00[1] 0.000592777
2 *1034:X 0.000592777
3 current_metric_00[1] *930:B 2.42082e-05
4 current_metric_00[1] *934:A1 5.58941e-05
5 current_metric_00[1] *934:A2 9.41642e-05
6 current_metric_00[1] *934:B1 1.74352e-05
7 current_metric_00[1] *953:B 2.89114e-05
8 current_metric_00[1] *960:B1 0.00010096
9 current_metric_00[1] *1034:A 9.58948e-05
10 current_metric_00[1] *102:22 0.000357945
11 *1012:A current_metric_00[1] 0
12 *1022:A current_metric_00[1] 0
*RES
1 *1034:X current_metric_00[1] 27.3714 
*END

*D_NET *23 0.0011902
*CONN
*P current_metric_00[2] O
*I *1035:X O *D sky130_fd_sc_hd__buf_2
*CAP
1 current_metric_00[2] 0.000544297
2 *1035:X 0.000544297
3 current_metric_00[2] *960:B1 6.97409e-05
4 current_metric_00[2] *1034:A 3.18676e-05
*RES
1 *1035:X current_metric_00[2] 23.4071 
*END

*D_NET *24 0.00192922
*CONN
*P current_metric_00[3] O
*I *1036:X O *D sky130_fd_sc_hd__buf_2
*CAP
1 current_metric_00[3] 0.000701536
2 *1036:X 0.000701536
3 current_metric_00[3] *960:A1 0.000186766
4 current_metric_00[3] *960:A2 7.70035e-05
5 current_metric_00[3] *960:A3 4.65828e-06
6 current_metric_00[3] *112:12 0.000257722
*RES
1 *1036:X current_metric_00[3] 25.4607 
*END

*D_NET *25 0.00103631
*CONN
*P current_metric_01[0] O
*I *1037:X O *D sky130_fd_sc_hd__buf_2
*CAP
1 current_metric_01[0] 0.000435018
2 *1037:X 0.000435018
3 current_metric_01[0] *960:A2 2.34204e-05
4 current_metric_01[0] *112:12 0.000142856
*RES
1 *1037:X current_metric_01[0] 22.05 
*END

*D_NET *26 0.00148338
*CONN
*P current_metric_01[1] O
*I *1038:X O *D sky130_fd_sc_hd__buf_2
*CAP
1 current_metric_01[1] 0.000565542
2 *1038:X 0.000565542
3 current_metric_01[1] current_metric_01[2] 0.000322453
4 current_metric_01[1] *942:C 9.25014e-06
5 current_metric_01[1] *211:38 0
6 current_metric_01[1] *214:22 2.05938e-05
*RES
1 *1038:X current_metric_01[1] 34.8714 
*END

*D_NET *27 0.00112897
*CONN
*P current_metric_01[2] O
*I *1039:X O *D sky130_fd_sc_hd__buf_2
*CAP
1 current_metric_01[2] 0.000353735
2 *1039:X 0.000353735
3 current_metric_01[2] *942:A_N 9.90431e-05
4 current_metric_01[1] current_metric_01[2] 0.000322453
*RES
1 *1039:X current_metric_01[2] 21.6393 
*END

*D_NET *28 0.000958361
*CONN
*P current_metric_01[3] O
*I *1040:X O *D sky130_fd_sc_hd__buf_2
*CAP
1 current_metric_01[3] 0.000429659
2 *1040:X 0.000429659
3 current_metric_01[3] *942:A_N 9.90431e-05
*RES
1 *1040:X current_metric_01[3] 21.6393 
*END

*D_NET *29 0.000973241
*CONN
*P current_metric_10[0] O
*I *1041:X O *D sky130_fd_sc_hd__buf_2
*CAP
1 current_metric_10[0] 0.000466344
2 *1041:X 0.000466344
3 current_metric_10[0] *215:10 4.0552e-05
*RES
1 *1041:X current_metric_10[0] 22.05 
*END

*D_NET *30 0.000973241
*CONN
*P current_metric_10[1] O
*I *1042:X O *D sky130_fd_sc_hd__buf_2
*CAP
1 current_metric_10[1] 0.000466344
2 *1042:X 0.000466344
3 current_metric_10[1] *215:10 4.0552e-05
*RES
1 *1042:X current_metric_10[1] 22.05 
*END

*D_NET *31 0.000973241
*CONN
*P current_metric_10[2] O
*I *1043:X O *D sky130_fd_sc_hd__buf_2
*CAP
1 current_metric_10[2] 0.000466344
2 *1043:X 0.000466344
3 current_metric_10[2] *215:10 4.0552e-05
*RES
1 *1043:X current_metric_10[2] 22.05 
*END

*D_NET *32 0.000973241
*CONN
*P current_metric_10[3] O
*I *1044:X O *D sky130_fd_sc_hd__buf_2
*CAP
1 current_metric_10[3] 0.000466344
2 *1044:X 0.000466344
3 current_metric_10[3] *215:10 4.0552e-05
*RES
1 *1044:X current_metric_10[3] 22.05 
*END

*D_NET *33 0.00103556
*CONN
*P current_metric_11[0] O
*I *1045:X O *D sky130_fd_sc_hd__buf_2
*CAP
1 current_metric_11[0] 0.000450446
2 *1045:X 0.000450446
3 current_metric_11[0] *211:38 9.91086e-05
4 current_metric_11[0] *215:10 3.55552e-05
*RES
1 *1045:X current_metric_11[0] 22.05 
*END

*D_NET *34 0.00104291
*CONN
*P current_metric_11[1] O
*I *1046:X O *D sky130_fd_sc_hd__buf_2
*CAP
1 current_metric_11[1] 0.000487262
2 *1046:X 0.000487262
3 current_metric_11[1] *1046:A 3.18676e-05
4 current_metric_11[1] *215:10 3.65178e-05
*RES
1 *1046:X current_metric_11[1] 22.4607 
*END

*D_NET *35 0.000960353
*CONN
*P current_metric_11[2] O
*I *1047:X O *D sky130_fd_sc_hd__buf_2
*CAP
1 current_metric_11[2] 0.0004599
2 *1047:X 0.0004599
3 current_metric_11[2] *215:10 4.0552e-05
*RES
1 *1047:X current_metric_11[2] 22.05 
*END

*D_NET *36 0.00105551
*CONN
*P current_metric_11[3] O
*I *1048:X O *D sky130_fd_sc_hd__buf_2
*CAP
1 current_metric_11[3] 0.000527756
2 *1048:X 0.000527756
3 current_metric_11[3] *1048:A 0
*RES
1 *1048:X current_metric_11[3] 22.8714 
*END

*D_NET *37 0.00111114
*CONN
*P rst_n I
*I *1021:A I *D sky130_fd_sc_hd__clkbuf_1
*CAP
1 rst_n 0.000555569
2 *1021:A 0.000555569
*RES
1 rst_n *1021:A 24.4786 
*END

*D_NET *38 0.000526941
*CONN
*P servivor_select_00 O
*I *1049:X O *D sky130_fd_sc_hd__buf_2
*CAP
1 servivor_select_00 0.000246201
2 *1049:X 0.000246201
3 servivor_select_00 *1049:A 3.454e-05
*RES
1 *1049:X servivor_select_00 18.73 
*END

*D_NET *39 0.000495547
*CONN
*P servivor_select_01 O
*I *1050:X O *D sky130_fd_sc_hd__buf_2
*CAP
1 servivor_select_01 0.000247773
2 *1050:X 0.000247773
3 servivor_select_01 *213:74 0
*RES
1 *1050:X servivor_select_01 18.73 
*END

*D_NET *40 0.000513627
*CONN
*P servivor_select_10 O
*I *1051:X O *D sky130_fd_sc_hd__buf_2
*CAP
1 servivor_select_10 0.000256814
2 *1051:X 0.000256814
3 servivor_select_10 *1051:A 0
*RES
1 *1051:X servivor_select_10 18.73 
*END

*D_NET *41 0.000433839
*CONN
*P servivor_select_11 O
*I *1052:X O *D sky130_fd_sc_hd__buf_2
*CAP
1 servivor_select_11 0.00021692
2 *1052:X 0.00021692
*RES
1 *1052:X servivor_select_11 18.1229 
*END

*D_NET *42 0.000615406
*CONN
*I *996:D I *D sky130_fd_sc_hd__dfrtp_2
*I *961:X O *D sky130_fd_sc_hd__o211a_1
*CAP
1 *996:D 0.000169831
2 *961:X 0.000169831
3 *996:D *963:C1 0.000141554
4 *996:D *118:10 0.000124157
5 *996:D *197:22 1.00332e-05
*RES
1 *961:X *996:D 30.6 
*END

*D_NET *43 0.00220731
*CONN
*I *997:D I *D sky130_fd_sc_hd__dfrtp_2
*I *963:X O *D sky130_fd_sc_hd__o211a_1