*SPEF "ieee 1481-1999"
*DESIGN "Branch_Metrics"
*DATE "17:58:05 Wednesday January 21, 2026"
*VENDOR "The OpenROAD Project"
*PROGRAM "OpenROAD"
*VERSION "edf00dff99f6c40d67a30c0e22a8191c5d2ed9d6"
*DESIGN_FLOW "NAME_SCOPE LOCAL" "PIN_CAP NONE"
*DIVIDER /
*DELIMITER :
*BUS_DELIMITER []
*T_UNIT 1 NS
*C_UNIT 1 PF
*R_UNIT 1 OHM
*L_UNIT 1 HENRY

*NAME_MAP
*3 bm_00_00[0]
*4 bm_00_00[1]
*5 bm_00_10[0]
*6 bm_00_10[1]
*7 bm_01_00[0]
*8 bm_01_00[1]
*9 bm_01_10[0]
*10 bm_01_10[1]
*11 bm_10_01[0]
*12 bm_10_01[1]
*13 bm_10_11[0]
*14 bm_10_11[1]
*15 bm_11_01[0]
*16 bm_11_01[1]
*17 bm_11_11[0]
*18 bm_11_11[1]
*19 received[0]
*20 received[1]
*21 net1
*22 net10
*23 net11
*24 net12
*25 net13
*26 net14
*27 net15
*28 net16
*29 net17
*30 net18
*31 net2
*32 net3
*33 net4
*34 net5
*35 net6
*36 net7
*37 net8
*38 net9
*39 FILLER_0_15
*40 FILLER_0_27
*41 FILLER_0_29
*42 FILLER_0_3
*43 FILLER_0_41
*44 FILLER_0_53
*45 FILLER_0_57
*46 FILLER_0_61
*47 FILLER_10_15
*48 FILLER_10_27
*49 FILLER_10_29
*50 FILLER_10_3
*51 FILLER_10_41
*52 FILLER_10_53
*53 FILLER_10_68
*54 FILLER_11_15
*55 FILLER_11_27
*56 FILLER_11_3
*57 FILLER_11_39
*58 FILLER_11_51
*59 FILLER_11_55
*60 FILLER_11_57
*61 FILLER_11_68
*62 FILLER_12_15
*63 FILLER_12_27
*64 FILLER_12_29
*65 FILLER_12_3
*66 FILLER_12_41
*67 FILLER_12_53
*68 FILLER_12_68
*69 FILLER_13_15
*70 FILLER_13_27
*71 FILLER_13_3
*72 FILLER_13_39
*73 FILLER_13_51
*74 FILLER_13_55
*75 FILLER_13_57
*76 FILLER_13_65
*77 FILLER_14_15
*78 FILLER_14_27
*79 FILLER_14_29
*80 FILLER_14_3
*81 FILLER_14_41
*82 FILLER_14_53
*83 FILLER_14_65
*84 FILLER_14_69
*85 FILLER_15_15
*86 FILLER_15_27
*87 FILLER_15_3
*88 FILLER_15_39
*89 FILLER_15_51
*90 FILLER_15_55
*91 FILLER_15_57
*92 FILLER_15_65
*93 FILLER_16_15
*94 FILLER_16_27
*95 FILLER_16_29
*96 FILLER_16_3
*97 FILLER_16_41
*98 FILLER_16_53
*99 FILLER_16_65
*100 FILLER_16_69
*101 FILLER_17_15
*102 FILLER_17_27
*103 FILLER_17_3
*104 FILLER_17_39
*105 FILLER_17_51
*106 FILLER_17_55
*107 FILLER_17_57
*108 FILLER_17_67
*109 FILLER_18_15
*110 FILLER_18_27
*111 FILLER_18_29
*112 FILLER_18_3
*113 FILLER_18_41
*114 FILLER_18_53
*115 FILLER_18_68
*116 FILLER_19_15
*117 FILLER_19_27
*118 FILLER_19_3
*119 FILLER_19_39
*120 FILLER_19_51
*121 FILLER_19_55
*122 FILLER_19_57
*123 FILLER_1_15
*124 FILLER_1_27
*125 FILLER_1_3
*126 FILLER_1_39
*127 FILLER_1_51
*128 FILLER_1_55
*129 FILLER_1_57
*130 FILLER_1_68
*131 FILLER_20_15
*132 FILLER_20_27
*133 FILLER_20_29
*134 FILLER_20_3
*135 FILLER_20_41
*136 FILLER_20_53
*137 FILLER_20_69
*138 FILLER_21_15
*139 FILLER_21_27
*140 FILLER_21_3
*141 FILLER_21_39
*142 FILLER_21_51
*143 FILLER_21_55
*144 FILLER_21_57
*145 FILLER_21_69
*146 FILLER_22_15
*147 FILLER_22_27
*148 FILLER_22_29
*149 FILLER_22_3
*150 FILLER_22_41
*151 FILLER_22_53
*152 FILLER_22_61
*153 FILLER_23_19
*154 FILLER_23_31
*155 FILLER_23_43
*156 FILLER_23_55
*157 FILLER_23_57
*158 FILLER_23_68
*159 FILLER_23_7
*160 FILLER_24_15
*161 FILLER_24_27
*162 FILLER_24_29
*163 FILLER_24_3
*164 FILLER_24_41
*165 FILLER_24_53
*166 FILLER_24_61
*167 FILLER_25_15
*168 FILLER_25_27
*169 FILLER_25_3
*170 FILLER_25_39
*171 FILLER_25_51
*172 FILLER_25_55
*173 FILLER_25_57
*174 FILLER_25_69
*175 FILLER_26_15
*176 FILLER_26_27
*177 FILLER_26_29
*178 FILLER_26_3
*179 FILLER_26_41
*180 FILLER_26_53
*181 FILLER_26_65
*182 FILLER_27_15
*183 FILLER_27_27
*184 FILLER_27_29
*185 FILLER_27_3
*186 FILLER_27_41
*187 FILLER_27_53
*188 FILLER_27_57
*189 FILLER_27_61
*190 FILLER_2_15
*191 FILLER_2_27
*192 FILLER_2_29
*193 FILLER_2_3
*194 FILLER_2_41
*195 FILLER_2_53
*196 FILLER_2_65
*197 FILLER_3_15
*198 FILLER_3_27
*199 FILLER_3_3
*200 FILLER_3_39
*201 FILLER_3_51
*202 FILLER_3_55
*203 FILLER_3_57
*204 FILLER_3_69
*205 FILLER_4_15
*206 FILLER_4_27
*207 FILLER_4_29
*208 FILLER_4_3
*209 FILLER_4_41
*210 FILLER_4_53
*211 FILLER_4_65
*212 FILLER_5_19
*213 FILLER_5_31
*214 FILLER_5_43
*215 FILLER_5_55
*216 FILLER_5_57
*217 FILLER_5_69
*218 FILLER_5_7
*219 FILLER_6_15
*220 FILLER_6_27
*221 FILLER_6_29
*222 FILLER_6_3
*223 FILLER_6_41
*224 FILLER_6_53
*225 FILLER_6_61
*226 FILLER_7_15
*227 FILLER_7_27
*228 FILLER_7_3
*229 FILLER_7_39
*230 FILLER_7_51
*231 FILLER_7_55
*232 FILLER_7_57
*233 FILLER_7_69
*234 FILLER_8_15
*235 FILLER_8_27
*236 FILLER_8_29
*237 FILLER_8_3
*238 FILLER_8_41
*239 FILLER_8_53
*240 FILLER_8_61
*241 FILLER_9_15
*242 FILLER_9_27
*243 FILLER_9_3
*244 FILLER_9_39
*245 FILLER_9_51
*246 FILLER_9_55
*247 FILLER_9_57
*248 PHY_EDGE_ROW_0_Left_28
*249 PHY_EDGE_ROW_0_Right_0
*250 PHY_EDGE_ROW_10_Left_38
*251 PHY_EDGE_ROW_10_Right_10
*252 PHY_EDGE_ROW_11_Left_39
*253 PHY_EDGE_ROW_11_Right_11
*254 PHY_EDGE_ROW_12_Left_40
*255 PHY_EDGE_ROW_12_Right_12
*256 PHY_EDGE_ROW_13_Left_41
*257 PHY_EDGE_ROW_13_Right_13
*258 PHY_EDGE_ROW_14_Left_42
*259 PHY_EDGE_ROW_14_Right_14
*260 PHY_EDGE_ROW_15_Left_43
*261 PHY_EDGE_ROW_15_Right_15
*262 PHY_EDGE_ROW_16_Left_44
*263 PHY_EDGE_ROW_16_Right_16
*264 PHY_EDGE_ROW_17_Left_45
*265 PHY_EDGE_ROW_17_Right_17
*266 PHY_EDGE_ROW_18_Left_46
*267 PHY_EDGE_ROW_18_Right_18
*268 PHY_EDGE_ROW_19_Left_47
*269 PHY_EDGE_ROW_19_Right_19
*270 PHY_EDGE_ROW_1_Left_29
*271 PHY_EDGE_ROW_1_Right_1
*272 PHY_EDGE_ROW_20_Left_48
*273 PHY_EDGE_ROW_20_Right_20
*274 PHY_EDGE_ROW_21_Left_49
*275 PHY_EDGE_ROW_21_Right_21
*276 PHY_EDGE_ROW_22_Left_50
*277 PHY_EDGE_ROW_22_Right_22
*278 PHY_EDGE_ROW_23_Left_51
*279 PHY_EDGE_ROW_23_Right_23
*280 PHY_EDGE_ROW_24_Left_52
*281 PHY_EDGE_ROW_24_Right_24
*282 PHY_EDGE_ROW_25_Left_53
*283 PHY_EDGE_ROW_25_Right_25
*284 PHY_EDGE_ROW_26_Left_54
*285 PHY_EDGE_ROW_26_Right_26
*286 PHY_EDGE_ROW_27_Left_55
*287 PHY_EDGE_ROW_27_Right_27
*288 PHY_EDGE_ROW_2_Left_30
*289 PHY_EDGE_ROW_2_Right_2
*290 PHY_EDGE_ROW_3_Left_31
*291 PHY_EDGE_ROW_3_Right_3
*292 PHY_EDGE_ROW_4_Left_32
*293 PHY_EDGE_ROW_4_Right_4
*294 PHY_EDGE_ROW_5_Left_33
*295 PHY_EDGE_ROW_5_Right_5
*296 PHY_EDGE_ROW_6_Left_34
*297 PHY_EDGE_ROW_6_Right_6
*298 PHY_EDGE_ROW_7_Left_35
*299 PHY_EDGE_ROW_7_Right_7
*300 PHY_EDGE_ROW_8_Left_36
*301 PHY_EDGE_ROW_8_Right_8
*302 PHY_EDGE_ROW_9_Left_37
*303 PHY_EDGE_ROW_9_Right_9
*304 TAP_TAPCELL_ROW_0_56
*305 TAP_TAPCELL_ROW_0_57
*306 TAP_TAPCELL_ROW_10_67
*307 TAP_TAPCELL_ROW_11_68
*308 TAP_TAPCELL_ROW_12_69
*309 TAP_TAPCELL_ROW_13_70
*310 TAP_TAPCELL_ROW_14_71
*311 TAP_TAPCELL_ROW_15_72
*312 TAP_TAPCELL_ROW_16_73
*313 TAP_TAPCELL_ROW_17_74
*314 TAP_TAPCELL_ROW_18_75
*315 TAP_TAPCELL_ROW_19_76
*316 TAP_TAPCELL_ROW_1_58
*317 TAP_TAPCELL_ROW_20_77
*318 TAP_TAPCELL_ROW_21_78
*319 TAP_TAPCELL_ROW_22_79
*320 TAP_TAPCELL_ROW_23_80
*321 TAP_TAPCELL_ROW_24_81
*322 TAP_TAPCELL_ROW_25_82
*323 TAP_TAPCELL_ROW_26_83
*324 TAP_TAPCELL_ROW_27_84
*325 TAP_TAPCELL_ROW_27_85
*326 TAP_TAPCELL_ROW_2_59
*327 TAP_TAPCELL_ROW_3_60
*328 TAP_TAPCELL_ROW_4_61
*329 TAP_TAPCELL_ROW_5_62
*330 TAP_TAPCELL_ROW_6_63
*331 TAP_TAPCELL_ROW_7_64
*332 TAP_TAPCELL_ROW_8_65
*333 TAP_TAPCELL_ROW_9_66
*334 _00_
*335 _01_
*336 _02_
*337 _03_
*338 _04_
*339 _05_
*340 _06_
*341 _07_
*342 _08_
*343 _09_
*344 _10_
*345 _11_
*346 _12_
*347 _13_
*348 _14_
*349 _15_
*350 input1
*351 input2
*352 output10
*353 output11
*354 output12
*355 output13
*356 output14
*357 output15
*358 output16
*359 output17
*360 output18
*361 output3
*362 output4
*363 output5
*364 output6
*365 output7
*366 output8
*367 output9

*PORTS
bm_00_00[0] O
bm_00_00[1] O
bm_00_10[0] O
bm_00_10[1] O
bm_01_00[0] O
bm_01_00[1] O
bm_01_10[0] O
bm_01_10[1] O
bm_10_01[0] O
bm_10_01[1] O
bm_10_11[0] O
bm_10_11[1] O
bm_11_01[0] O
bm_11_01[1] O
bm_11_11[0] O
bm_11_11[1] O
received[0] I
received[1] I

*D_NET *3 0.00115751
*CONN
*P bm_00_00[0] O
*I *361:X O *D sky130_fd_sc_hd__buf_2
*CAP
1 bm_00_00[0] 0.000578755
2 *361:X 0.000578755
3 bm_00_00[0] bm_00_00[1] 0
*RES
1 *361:X bm_00_00[0] 10.5733 
*END

*D_NET *4 0.000850583
*CONN
*P bm_00_00[1] O
*I *362:X O *D sky130_fd_sc_hd__buf_2
*CAP
1 bm_00_00[1] 0.000425291
2 *362:X 0.000425291
3 bm_00_00[1] bm_00_10[0] 0
4 bm_00_00[0] bm_00_00[1] 0
*RES
1 *362:X bm_00_00[1] 6.27463 
*END

*D_NET *5 0.000588694
*CONN
*P bm_00_10[0] O
*I *363:X O *D sky130_fd_sc_hd__buf_2
*CAP
1 bm_00_10[0] 0.000263104
2 *363:X 0.000263104
3 bm_00_10[0] bm_00_10[1] 0
4 bm_00_10[0] *363:A 6.24871e-05
5 bm_00_00[1] bm_00_10[0] 0
*RES
1 *363:X bm_00_10[0] 5.4733 
*END

*D_NET *6 0.000494858
*CONN
*P bm_00_10[1] O
*I *364:X O *D sky130_fd_sc_hd__buf_2
*CAP
1 bm_00_10[1] 0.000243094
2 *364:X 0.000243094
3 bm_00_10[1] bm_01_00[0] 0
4 bm_00_10[1] *362:A 8.66976e-06
5 bm_00_10[0] bm_00_10[1] 0
*RES
1 *364:X bm_00_10[1] 4.9633 
*END

*D_NET *7 0.000543214
*CONN
*P bm_01_00[0] O
*I *365:X O *D sky130_fd_sc_hd__buf_2
*CAP
1 bm_01_00[0] 0.000263161
2 *365:X 0.000263161
3 bm_01_00[0] *362:A 1.68926e-05
4 bm_00_10[1] bm_01_00[0] 0
*RES
1 *365:X bm_01_00[0] 5.2183 
*END

*D_NET *8 0.000645925
*CONN
*P bm_01_00[1] O
*I *366:X O *D sky130_fd_sc_hd__buf_2
*CAP
1 bm_01_00[1] 0.000279064
2 *366:X 0.000279064
3 bm_01_00[1] bm_01_10[0] 0
4 bm_01_00[1] *362:A 8.7798e-05
*RES
1 *366:X bm_01_00[1] 5.7283 
*END

*D_NET *9 0.0011959
*CONN
*P bm_01_10[0] O
*I *367:X O *D sky130_fd_sc_hd__buf_2
*CAP
1 bm_01_10[0] 0.000480815
2 *367:X 0.000480815
3 bm_01_10[0] bm_01_10[1] 0
4 bm_01_10[0] *367:A 0.000103761
5 bm_01_10[0] *21:29 8.39001e-05
6 bm_01_10[0] *21:44 4.66108e-05
7 bm_01_00[1] bm_01_10[0] 0
*RES
1 *367:X bm_01_10[0] 7.44637 
*END

*D_NET *10 0.000505218
*CONN
*P bm_01_10[1] O
*I *352:X O *D sky130_fd_sc_hd__buf_2
*CAP
1 bm_01_10[1] 0.000237534
2 *352:X 0.000237534
3 bm_01_10[1] bm_10_01[0] 0
4 bm_01_10[1] *352:A 2.05641e-05
5 bm_01_10[1] *21:44 9.58678e-06
6 bm_01_10[0] bm_01_10[1] 0
*RES
1 *352:X bm_01_10[1] 4.9633 
*END

*D_NET *11 0.000520597
*CONN
*P bm_10_01[0] O
*I *353:X O *D sky130_fd_sc_hd__buf_2
*CAP
1 bm_10_01[0] 0.00024473
2 *353:X 0.00024473
3 bm_10_01[0] bm_10_01[1] 0
4 bm_10_01[0] *21:44 1.00941e-05
5 bm_10_01[0] *31:44 2.10433e-05
6 bm_01_10[1] bm_10_01[0] 0
*RES
1 *353:X bm_10_01[0] 4.9633 
*END

*D_NET *12 0.00113823
*CONN
*P bm_10_01[1] O
*I *354:X O *D sky130_fd_sc_hd__buf_2
*CAP
1 bm_10_01[1] 0.000330685
2 *354:X 0.000330685
3 bm_10_01[1] bm_10_11[0] 0
4 bm_10_01[1] *360:A 7.23602e-05
5 bm_10_01[1] *23:17 0.000121017
6 bm_10_01[1] *31:23 0.000109995
7 bm_10_01[1] *31:29 0.000173484
8 bm_10_01[0] bm_10_01[1] 0
*RES
1 *354:X bm_10_01[1] 8.0233 
*END

*D_NET *13 0.00105124
*CONN
*P bm_10_11[0] O
*I *355:X O *D sky130_fd_sc_hd__buf_2
*CAP
1 bm_10_11[0] 0.000515143
2 *355:X 0.000515143
3 bm_10_11[0] bm_10_11[1] 0
4 bm_10_11[0] *355:A 2.09527e-05
5 bm_10_01[1] bm_10_11[0] 0
*RES
1 *355:X bm_10_11[0] 5.93943 
*END

*D_NET *14 0.000506005
*CONN
*P bm_10_11[1] O
*I *356:X O *D sky130_fd_sc_hd__buf_2
*CAP
1 bm_10_11[1] 0.000242721
2 *356:X 0.000242721
3 bm_10_11[1] bm_11_01[0] 0
4 bm_10_11[1] *360:A 2.05641e-05
5 bm_10_11[0] bm_10_11[1] 0
*RES
1 *356:X bm_10_11[1] 4.9633 
*END

*D_NET *15 0.000544655
*CONN
*P bm_11_01[0] O
*I *357:X O *D sky130_fd_sc_hd__buf_2
*CAP
1 bm_11_01[0] 0.000250266
2 *357:X 0.000250266
3 bm_11_01[0] bm_11_01[1] 0
4 bm_11_01[0] *360:A 4.4123e-05
5 bm_10_11[1] bm_11_01[0] 0
*RES
1 *357:X bm_11_01[0] 5.2183 
*END

*D_NET *16 0.000675409
*CONN
*P bm_11_01[1] O
*I *358:X O *D sky130_fd_sc_hd__buf_2
*CAP
1 bm_11_01[1] 0.000262515
2 *358:X 0.000262515
3 bm_11_01[1] bm_11_11[0] 0
4 bm_11_01[1] bm_11_11[1] 0.000106344
5 bm_11_01[1] *358:A 4.40358e-05
6 bm_11_01[0] bm_11_01[1] 0
*RES
1 *358:X bm_11_01[1] 5.9833 
*END

*D_NET *17 0.000910427
*CONN
*P bm_11_11[0] O
*I *359:X O *D sky130_fd_sc_hd__buf_2
*CAP
1 bm_11_11[0] 0.000455213
2 *359:X 0.000455213
3 bm_11_11[0] bm_11_11[1] 0
4 bm_11_01[1] bm_11_11[0] 0
*RES
1 *359:X bm_11_11[0] 7.23637 
*END

*D_NET *18 0.0017744
*CONN
*P bm_11_11[1] O
*I *360:X O *D sky130_fd_sc_hd__buf_2
*CAP
1 bm_11_11[1] 0.000818762
2 *360:X 0.000818762
3 bm_11_11[1] *358:A 0
4 bm_11_11[1] *360:A 3.05295e-05
5 bm_11_01[1] bm_11_11[1] 0.000106344
6 bm_11_11[0] bm_11_11[1] 0
*RES
1 *360:X bm_11_11[1] 15.3 
*END

*D_NET *19 0.000583817
*CONN
*P received[0] I
*I *350:A I *D sky130_fd_sc_hd__clkbuf_2
*CAP
1 received[0] 0.000291908
2 *350:A 0.000291908
*RES
1 received[0] *350:A 7.78217 
*END

*D_NET *20 0.000510588
*CONN
*P received[1] I
*I *351:A I *D sky130_fd_sc_hd__clkbuf_2
*CAP
1 received[1] 0.000255294
2 *351:A 0.000255294
*RES
1 received[1] *351:A 7.27217 
*END

*D_NET *21 0.00873543
*CONN
*I *335:A I *D sky130_fd_sc_hd__nor2_1
*I *338:A_N I *D sky130_fd_sc_hd__and2b_1
*I *339:B I *D sky130_fd_sc_hd__and2b_1
*I *337:A I *D sky130_fd_sc_hd__xnor2_1
*I *334:A I *D sky130_fd_sc_hd__and2_1
*I *336:A I *D sky130_fd_sc_hd__xor2_1
*I *350:X O *D sky130_fd_sc_hd__clkbuf_2
*CAP
1 *335:A 0.000154436
2 *338:A_N 0.000218824
3 *339:B 0
4 *337:A 4.32054e-05
5 *334:A 0
6 *336:A 0
7 *350:X 0.00186006
8 *21:55 0.000317262
9 *21:44 0.00100965
10 *21:29 0.0010305
11 *21:23 0.000365111
12 *21:14 0.00190825
13 *335:A *335:B 4.66108e-05
14 *335:A *336:B 0.000110673
15 *337:A *337:B 4.99619e-05
16 *338:A_N *345:A 4.17687e-05
17 *338:A_N *349:A 1.26626e-05
18 *338:A_N *354:A 6.55328e-05
19 *338:A_N *355:A 9.43274e-05
20 *338:A_N *23:17 6.59371e-05
21 *338:A_N *23:34 6.90043e-05
22 *338:A_N *31:23 5.85626e-05
23 *21:23 *336:B 2.11921e-05
24 *21:29 *343:A 0.000141606
25 *21:29 *367:A 1.74977e-05
26 *21:29 *31:48 2.63122e-05
27 *21:44 *334:B 4.66108e-05
28 *21:44 *337:B 0.000110668
29 *21:44 *344:A 7.54567e-05
30 *21:44 *352:A 4.85306e-05
31 *21:44 *367:A 4.82919e-05
32 *21:44 *31:29 0.000113205
33 *21:44 *31:44 0.000265573
34 *21:55 *349:A 2.86623e-05
35 *21:55 *23:17 0.000119285
36 bm_01_10[0] *21:29 8.39001e-05
37 bm_01_10[0] *21:44 4.66108e-05
38 bm_01_10[1] *21:44 9.58678e-06
39 bm_10_01[0] *21:44 1.00941e-05
*RES
1 *350:X *21:14 33.14 
2 *21:14 *336:A 1.6 
3 *21:14 *21:23 0.81 
4 *21:23 *21:29 7.675 
5 *21:29 *334:A 1.6 
6 *21:29 *21:44 21.295 
7 *21:44 *337:A 2.395 
8 *21:44 *21:55 4.4 
9 *21:55 *339:B 3.6 
10 *21:55 *338:A_N 8.505 
11 *21:23 *335:A 4.135 
*END

*D_NET *22 0.000370613
*CONN
*I *352:A I *D sky130_fd_sc_hd__buf_2
*I *344:X O *D sky130_fd_sc_hd__clkbuf_1
*CAP
1 *352:A 7.99595e-05
2 *344:X 7.99595e-05
3 *352:A *31:44 0.000141599
4 bm_01_10[1] *352:A 2.05641e-05
5 *21:44 *352:A 4.85306e-05
*RES
1 *344:X *352:A 9.285 
*END

*D_NET *23 0.00359513
*CONN
*I *346:A I *D sky130_fd_sc_hd__clkbuf_1
*I *348:A I *D sky130_fd_sc_hd__clkbuf_1
*I *345:A I *D sky130_fd_sc_hd__clkbuf_1
*I *353:A I *D sky130_fd_sc_hd__buf_2
*I *337:Y O *D sky130_fd_sc_hd__xnor2_1
*CAP
1 *346:A 0
2 *348:A 0.000153284
3 *345:A 3.89184e-05
4 *353:A 0.000143661
5 *337:Y 0
6 *23:34 0.000405404
7 *23:17 0.000414373
8 *23:6 0.000266995
9 *348:A *358:A 0.000163019
10 *348:A *31:12 5.83121e-06
11 *353:A *31:44 0.000323188
12 *23:17 *360:A 0.000106494
13 *23:17 *31:29 7.8494e-06
14 *23:17 *31:44 3.09164e-05
15 *23:34 *355:A 8.08153e-06
16 *23:34 *357:A 5.83121e-06
17 *23:34 *358:A 0.000141599
18 *23:34 *360:A 0.000749385
19 *23:34 *31:12 0.000213287
20 bm_10_01[1] *23:17 0.000121017
21 *338:A_N *345:A 4.17687e-05
22 *338:A_N *23:17 6.59371e-05
23 *338:A_N *23:34 6.90043e-05
24 *21:55 *23:17 0.000119285
*RES
1 *337:Y *23:6 3.6 
2 *23:6 *353:A 7.275 
3 *23:6 *23:17 4.3125 
4 *23:17 *345:A 4.5375 
5 *23:17 *23:34 11.0975 
6 *23:34 *348:A 8.39 
7 *23:34 *346:A 1.6 
*END

*D_NET *24 0.000754708
*CONN
*I *354:A I *D sky130_fd_sc_hd__buf_2
*I *349:A I *D sky130_fd_sc_hd__clkbuf_1
*I *339:X O *D sky130_fd_sc_hd__and2b_1
*CAP
1 *354:A 0.000201206
2 *349:A 0.000108962
3 *339:X 0
4 *24:6 0.000310168
5 *349:A *360:A 2.75145e-05
6 *338:A_N *349:A 1.26626e-05
7 *338:A_N *354:A 6.55328e-05
8 *21:55 *349:A 2.86623e-05
*RES
1 *339:X *24:6 3.6 
2 *24:6 *349:A 5.61 
3 *24:6 *354:A 6.825 
*END

*D_NET *25 0.000305424
*CONN
*I *355:A I *D sky130_fd_sc_hd__buf_2
*I *345:X O *D sky130_fd_sc_hd__clkbuf_1
*CAP
1 *355:A 9.10314e-05
2 *345:X 9.10314e-05
3 bm_10_11[0] *355:A 2.09527e-05
4 *338:A_N *355:A 9.43274e-05
5 *23:34 *355:A 8.08153e-06
*RES
1 *345:X *355:A 9.03 
*END

*D_NET *26 0.000753528
*CONN
*I *356:A I *D sky130_fd_sc_hd__buf_2
*I *347:A I *D sky130_fd_sc_hd__clkbuf_1
*I *338:X O *D sky130_fd_sc_hd__and2b_1
*CAP
1 *356:A 8.94138e-05
2 *347:A 0
3 *338:X 0.000138129
4 *26:10 0.000227543
5 *26:10 *31:12 0.000298442
*RES
1 *338:X *26:10 9.02 
2 *26:10 *347:A 1.6 
3 *26:10 *356:A 2.74 
*END

*D_NET *27 0.000395511
*CONN
*I *357:A I *D sky130_fd_sc_hd__buf_2
*I *346:X O *D sky130_fd_sc_hd__clkbuf_1
*CAP
1 *357:A 7.632e-05
2 *346:X 7.632e-05
3 *357:A *358:A 0.00011852
4 *357:A *360:A 0.00011852
5 *23:34 *357:A 5.83121e-06
*RES
1 *346:X *357:A 9.03 
*END

*D_NET *28 0.001682
*CONN
*I *358:A I *D sky130_fd_sc_hd__buf_2
*I *347:X O *D sky130_fd_sc_hd__clkbuf_1
*CAP
1 *358:A 0.000305946
2 *347:X 0.000305946
3 *358:A *359:A 0.000283336
4 *358:A *360:A 0.00022416
5 *358:A *31:12 9.54399e-05
6 bm_11_01[1] *358:A 4.40358e-05
7 bm_11_11[1] *358:A 0
8 *348:A *358:A 0.000163019
9 *357:A *358:A 0.00011852
10 *23:34 *358:A 0.000141599
*RES
1 *347:X *358:A 17.445 
*END

*D_NET *29 0.00083908
*CONN
*I *359:A I *D sky130_fd_sc_hd__buf_2
*I *348:X O *D sky130_fd_sc_hd__clkbuf_1
*CAP
1 *359:A 0.000277872
2 *348:X 0.000277872
3 *358:A *359:A 0.000283336
*RES
1 *348:X *359:A 13.365 
*END

*D_NET *30 0.00315201
*CONN
*I *360:A I *D sky130_fd_sc_hd__buf_2
*I *349:X O *D sky130_fd_sc_hd__clkbuf_1
*CAP
1 *360:A 0.00080219
2 *349:X 0.00080219
3 *360:A *339:A_N 7.00889e-06
4 *360:A *31:23 0.000146972
5 bm_10_01[1] *360:A 7.23602e-05
6 bm_10_11[1] *360:A 2.05641e-05
7 bm_11_01[0] *360:A 4.4123e-05
8 bm_11_11[1] *360:A 3.05295e-05
9 *349:A *360:A 2.75145e-05
10 *357:A *360:A 0.00011852
11 *358:A *360:A 0.00022416
12 *23:17 *360:A 0.000106494
13 *23:34 *360:A 0.000749385
*RES
1 *349:X *360:A 25.95 
*END

*D_NET *31 0.00902913
*CONN
*I *339:A_N I *D sky130_fd_sc_hd__and2b_1
*I *334:B I *D sky130_fd_sc_hd__and2_1
*I *335:B I *D sky130_fd_sc_hd__nor2_1
*I *336:B I *D sky130_fd_sc_hd__xor2_1
*I *337:B I *D sky130_fd_sc_hd__xnor2_1
*I *338:B I *D sky130_fd_sc_hd__and2b_1
*I *351:X O *D sky130_fd_sc_hd__clkbuf_2
*CAP
1 *339:A_N 5.99671e-05
2 *334:B 2.61242e-05
3 *335:B 1.27578e-05
4 *336:B 4.55393e-05
5 *337:B 7.05719e-05
6 *338:B 0
7 *351:X 0.00162068
8 *31:48 0.000166843
9 *31:44 0.00061264
10 *31:29 0.000683602
11 *31:23 0.000516886
12 *31:12 0.00194254
13 *335:B *35:12 2.05056e-05
14 *336:B *35:12 7.22354e-05
15 *31:44 *344:A 0.000163019
16 *31:44 *367:A 1.08523e-05
17 *31:48 *343:A 8.78813e-05
18 *31:48 *344:A 4.21314e-05
19 *31:48 *362:A 0.000313471
20 *31:48 *367:A 0.000136459
21 bm_10_01[0] *31:44 2.10433e-05
22 bm_10_01[1] *31:23 0.000109995
23 bm_10_01[1] *31:29 0.000173484
24 *335:A *335:B 4.66108e-05
25 *335:A *336:B 0.000110673
26 *337:A *337:B 4.99619e-05
27 *338:A_N *31:23 5.85626e-05
28 *348:A *31:12 5.83121e-06
29 *352:A *31:44 0.000141599
30 *353:A *31:44 0.000323188
31 *358:A *31:12 9.54399e-05
32 *360:A *339:A_N 7.00889e-06
33 *360:A *31:23 0.000146972
34 *21:23 *336:B 2.11921e-05
35 *21:29 *31:48 2.63122e-05
36 *21:44 *334:B 4.66108e-05
37 *21:44 *337:B 0.000110668
38 *21:44 *31:29 0.000113205
39 *21:44 *31:44 0.000265573
40 *23:17 *31:29 7.8494e-06
41 *23:17 *31:44 3.09164e-05
42 *23:34 *31:12 0.000213287
43 *26:10 *31:12 0.000298442
*RES
1 *351:X *31:12 31.175 
2 *31:12 *338:B 1.6 
3 *31:12 *31:23 8.27 
4 *31:23 *31:29 5.195 
5 *31:29 *337:B 3.085 
6 *31:29 *31:44 14.645 
7 *31:44 *31:48 6.185 
8 *31:48 *336:B 3.1 
9 *31:48 *335:B 2.05 
10 *31:44 *334:B 4.05 
11 *31:23 *339:A_N 4.395 
*END

*D_NET *32 0.0044909
*CONN
*I *343:A I *D sky130_fd_sc_hd__clkbuf_1
*I *341:A I *D sky130_fd_sc_hd__clkbuf_1
*I *361:A I *D sky130_fd_sc_hd__buf_2
*I *340:A I *D sky130_fd_sc_hd__clkbuf_1
*I *336:X O *D sky130_fd_sc_hd__xor2_1
*CAP
1 *343:A 0.000209108
2 *341:A 3.76639e-05
3 *361:A 0.000127624
4 *340:A 0
5 *336:X 5.74715e-05
6 *32:16 0.00047882
7 *32:10 0.000531673
8 *32:8 0.000409393
9 *343:A *362:A 2.46007e-05
10 *361:A *362:A 0.000210839
11 *32:8 *35:12 8.65961e-05
12 *32:10 *362:A 0.000374431
13 *32:10 *364:A 0.000345977
14 *32:10 *35:12 0.00014262
15 *32:16 *362:A 0.000869462
16 *32:16 *364:A 0.000355129
17 *21:29 *343:A 0.000141606
18 *31:48 *343:A 8.78813e-05
*RES
1 *336:X *32:8 4.395 
2 *32:8 *32:10 5.715 
3 *32:10 *32:16 12.5 
4 *32:16 *340:A 1.6 
5 *32:16 *361:A 8.45 
6 *32:10 *341:A 4.05 
7 *32:8 *343:A 7.395 
*END

*D_NET *33 0.0044439
*CONN
*I *344:A I *D sky130_fd_sc_hd__clkbuf_1
*I *362:A I *D sky130_fd_sc_hd__buf_2
*I *334:X O *D sky130_fd_sc_hd__and2_1
*CAP
1 *344:A 0.000132034
2 *362:A 0.000962826
3 *334:X 0
4 *33:6 0.00109486
5 *362:A *363:A 6.74079e-05
6 bm_00_10[1] *362:A 8.66976e-06
7 bm_01_00[0] *362:A 1.68926e-05
8 bm_01_00[1] *362:A 8.7798e-05
9 *343:A *362:A 2.46007e-05
10 *361:A *362:A 0.000210839
11 *21:44 *344:A 7.54567e-05
12 *31:44 *344:A 0.000163019
13 *31:48 *344:A 4.21314e-05
14 *31:48 *362:A 0.000313471
15 *32:10 *362:A 0.000374431
16 *32:16 *362:A 0.000869462
*RES
1 *334:X *33:6 3.6 
2 *33:6 *362:A 26.79 
3 *33:6 *344:A 6.795 
*END

*D_NET *34 0.000291296
*CONN
*I *363:A I *D sky130_fd_sc_hd__buf_2
*I *340:X O *D sky130_fd_sc_hd__clkbuf_1
*CAP
1 *363:A 8.07005e-05
2 *340:X 8.07005e-05
3 bm_00_10[0] *363:A 6.24871e-05
4 *362:A *363:A 6.74079e-05
*RES
1 *340:X *363:A 9.03 
*END

*D_NET *35 0.00216047
*CONN
*I *342:A I *D sky130_fd_sc_hd__clkbuf_1
*I *364:A I *D sky130_fd_sc_hd__buf_2
*I *335:Y O *D sky130_fd_sc_hd__nor2_1
*CAP
1 *342:A 0
2 *364:A 0.000417678
3 *335:Y 0.000151025
4 *35:12 0.000568703
5 *335:B *35:12 2.05056e-05
6 *336:B *35:12 7.22354e-05
7 *32:8 *35:12 8.65961e-05
8 *32:10 *364:A 0.000345977
9 *32:10 *35:12 0.00014262
10 *32:16 *364:A 0.000355129
*RES
1 *335:Y *35:12 7.08 
2 *35:12 *364:A 13.005 
3 *35:12 *342:A 3.6 
*END

*D_NET *36 0.000135725
*CONN
*I *365:A I *D sky130_fd_sc_hd__buf_2
*I *341:X O *D sky130_fd_sc_hd__clkbuf_1
*CAP
1 *365:A 6.78625e-05
2 *341:X 6.78625e-05
*RES
1 *341:X *365:A 4.265 
*END

*D_NET *37 0.00013463
*CONN
*I *366:A I *D sky130_fd_sc_hd__buf_2
*I *342:X O *D sky130_fd_sc_hd__clkbuf_1
*CAP
1 *366:A 6.73151e-05
2 *342:X 6.73151e-05
*RES
1 *342:X *366:A 4.265 
*END

*D_NET *38 0.000573155
*CONN
*I *367:A I *D sky130_fd_sc_hd__buf_2
*I *343:X O *D sky130_fd_sc_hd__clkbuf_1
*CAP
1 *367:A 0.000128147
2 *343:X 0.000128147
3 bm_01_10[0] *367:A 0.000103761
4 *21:29 *367:A 1.74977e-05
5 *21:44 *367:A 4.82919e-05
6 *31:44 *367:A 1.08523e-05
7 *31:48 *367:A 0.000136459
*RES
1 *343:X *367:A 10.44 
*END
