*SPEF "ieee 1481-1999"
*DESIGN "Survivor_Memory_Unit"
*DATE "18:01:22 Wednesday January 21, 2026"
*VENDOR "The OpenROAD Project"
*PROGRAM "OpenROAD"
*VERSION "edf00dff99f6c40d67a30c0e22a8191c5d2ed9d6"
*DESIGN_FLOW "NAME_SCOPE LOCAL" "PIN_CAP NONE"
*DIVIDER /
*DELIMITER :
*BUS_DELIMITER []
*T_UNIT 1 NS
*C_UNIT 1 PF
*R_UNIT 1 OHM
*L_UNIT 1 HENRY

*NAME_MAP
*3 clk
*4 decoded_out[0]
*5 decoded_out[1]
*6 decoded_out[2]
*7 decoded_out[3]
*8 decoded_out[4]
*9 decoded_out[5]
*10 decoded_out[6]
*11 decoded_out[7]
*12 rst_n
*13 survivor_select_00
*14 survivor_select_01
*15 survivor_select_10
*16 survivor_select_11
*17 winner_state[0]
*18 winner_state[1]
*19 Output_Select_Inst\.decode_path_00\[2\]
*20 Output_Select_Inst\.decode_path_00\[3\]
*21 Output_Select_Inst\.decode_path_00\[4\]
*22 Output_Select_Inst\.decode_path_00\[5\]
*23 Output_Select_Inst\.decode_path_00\[6\]
*24 Output_Select_Inst\.decode_path_00\[7\]
*25 Output_Select_Inst\.decode_path_01\[1\]
*26 Output_Select_Inst\.decode_path_01\[2\]
*27 Output_Select_Inst\.decode_path_01\[3\]
*28 Output_Select_Inst\.decode_path_01\[4\]
*29 Output_Select_Inst\.decode_path_01\[5\]
*30 Output_Select_Inst\.decode_path_01\[6\]
*31 Output_Select_Inst\.decode_path_01\[7\]
*32 Output_Select_Inst\.decode_path_10\[0\]
*33 Output_Select_Inst\.decode_path_10\[2\]
*34 Output_Select_Inst\.decode_path_10\[3\]
*35 Output_Select_Inst\.decode_path_10\[4\]
*36 Output_Select_Inst\.decode_path_10\[5\]
*37 Output_Select_Inst\.decode_path_10\[6\]
*38 Output_Select_Inst\.decode_path_10\[7\]
*39 Output_Select_Inst\.decode_path_11\[2\]
*40 Output_Select_Inst\.decode_path_11\[3\]
*41 Output_Select_Inst\.decode_path_11\[4\]
*42 Output_Select_Inst\.decode_path_11\[5\]
*43 Output_Select_Inst\.decode_path_11\[6\]
*44 Output_Select_Inst\.decode_path_11\[7\]
*45 Reg_Exchange_Inst\.next_00\[2\]
*46 Reg_Exchange_Inst\.next_00\[3\]
*47 Reg_Exchange_Inst\.next_00\[4\]
*48 Reg_Exchange_Inst\.next_00\[5\]
*49 Reg_Exchange_Inst\.next_00\[6\]
*50 Reg_Exchange_Inst\.next_00\[7\]
*51 Reg_Exchange_Inst\.next_01\[2\]
*52 Reg_Exchange_Inst\.next_01\[3\]
*53 Reg_Exchange_Inst\.next_01\[4\]
*54 Reg_Exchange_Inst\.next_01\[5\]
*55 Reg_Exchange_Inst\.next_01\[6\]
*56 Reg_Exchange_Inst\.next_01\[7\]
*57 Reg_Exchange_Inst\.next_10\[2\]
*58 Reg_Exchange_Inst\.next_10\[3\]
*59 Reg_Exchange_Inst\.next_10\[4\]
*60 Reg_Exchange_Inst\.next_10\[5\]
*61 Reg_Exchange_Inst\.next_10\[6\]
*62 Reg_Exchange_Inst\.next_10\[7\]
*63 Reg_Exchange_Inst\.next_11\[2\]
*64 Reg_Exchange_Inst\.next_11\[3\]
*65 Reg_Exchange_Inst\.next_11\[4\]
*66 Reg_Exchange_Inst\.next_11\[5\]
*67 Reg_Exchange_Inst\.next_11\[6\]
*68 Reg_Exchange_Inst\.next_11\[7\]
*69 _000_
*70 _001_
*71 _002_
*72 _003_
*73 _004_
*74 _005_
*75 _006_
*76 _007_
*77 _008_
*78 _009_
*79 _010_
*80 _011_
*81 _012_
*82 _013_
*83 _014_
*84 _015_
*85 _016_
*86 _017_
*87 _018_
*88 _019_
*89 _020_
*90 _021_
*91 _022_
*92 _023_
*93 _024_
*94 _025_
*95 _026_
*96 _027_
*97 _028_
*98 clknet_0_clk
*99 clknet_2_0__leaf_clk
*100 clknet_2_1__leaf_clk
*101 clknet_2_2__leaf_clk
*102 clknet_2_3__leaf_clk
*103 net1
*104 net10
*105 net11
*106 net12
*107 net13
*108 net14
*109 net15
*110 net16
*111 net17
*112 net18
*113 net19
*114 net2
*115 net20
*116 net21
*117 net22
*118 net23
*119 net24
*120 net25
*121 net26
*122 net27
*123 net28
*124 net29
*125 net3
*126 net30
*127 net31
*128 net32
*129 net33
*130 net34
*131 net35
*132 net36
*133 net37
*134 net38
*135 net39
*136 net4
*137 net40
*138 net41
*139 net42
*140 net43
*141 net44
*142 net45
*143 net46
*144 net47
*145 net48
*146 net49
*147 net5
*148 net50
*149 net51
*150 net52
*151 net53
*152 net54
*153 net55
*154 net56
*155 net57
*156 net58
*157 net59
*158 net6
*159 net60
*160 net7
*161 net8
*162 net9
*163 FILLER_0_15
*164 FILLER_0_24
*165 FILLER_0_29
*166 FILLER_0_3
*167 FILLER_0_41
*168 FILLER_0_53
*169 FILLER_0_57
*170 FILLER_0_69
*171 FILLER_0_81
*172 FILLER_0_85
*173 FILLER_0_89
*174 FILLER_0_97
*175 FILLER_10_101
*176 FILLER_10_19
*177 FILLER_10_34
*178 FILLER_10_7
*179 FILLER_10_82
*180 FILLER_10_93
*181 FILLER_11_15
*182 FILLER_11_21
*183 FILLER_11_3
*184 FILLER_11_99
*185 FILLER_12_15
*186 FILLER_12_27
*187 FILLER_12_29
*188 FILLER_12_3
*189 FILLER_12_57
*190 FILLER_12_83
*191 FILLER_12_97
*192 FILLER_13_102
*193 FILLER_13_15
*194 FILLER_13_27
*195 FILLER_13_3
*196 FILLER_13_57
*197 FILLER_13_94
*198 FILLER_14_15
*199 FILLER_14_27
*200 FILLER_14_29
*201 FILLER_14_3
*202 FILLER_14_99
*203 FILLER_15_15
*204 FILLER_15_27
*205 FILLER_15_3
*206 FILLER_15_66
*207 FILLER_15_78
*208 FILLER_15_99
*209 FILLER_16_15
*210 FILLER_16_27
*211 FILLER_16_29
*212 FILLER_16_3
*213 FILLER_16_78
*214 FILLER_16_85
*215 FILLER_16_97
*216 FILLER_17_15
*217 FILLER_17_27
*218 FILLER_17_3
*219 FILLER_17_57
*220 FILLER_17_80
*221 FILLER_17_92
*222 FILLER_17_98
*223 FILLER_18_15
*224 FILLER_18_19
*225 FILLER_18_29
*226 FILLER_18_3
*227 FILLER_18_58
*228 FILLER_18_80
*229 FILLER_18_85
*230 FILLER_18_97
*231 FILLER_19_101
*232 FILLER_19_19
*233 FILLER_19_23
*234 FILLER_19_52
*235 FILLER_19_7
*236 FILLER_19_73
*237 FILLER_1_19
*238 FILLER_1_31
*239 FILLER_1_43
*240 FILLER_1_55
*241 FILLER_1_57
*242 FILLER_1_69
*243 FILLER_1_7
*244 FILLER_1_81
*245 FILLER_20_102
*246 FILLER_20_15
*247 FILLER_20_29
*248 FILLER_20_3
*249 FILLER_21_15
*250 FILLER_21_3
*251 FILLER_21_55
*252 FILLER_22_101
*253 FILLER_22_15
*254 FILLER_22_27
*255 FILLER_22_29
*256 FILLER_22_3
*257 FILLER_22_61
*258 FILLER_23_15
*259 FILLER_23_3
*260 FILLER_23_66
*261 FILLER_24_100
*262 FILLER_24_15
*263 FILLER_24_27
*264 FILLER_24_29
*265 FILLER_24_3
*266 FILLER_25_15
*267 FILLER_25_27
*268 FILLER_25_3
*269 FILLER_25_35
*270 FILLER_25_45
*271 FILLER_25_77
*272 FILLER_26_15
*273 FILLER_26_27
*274 FILLER_26_29
*275 FILLER_26_3
*276 FILLER_26_41
*277 FILLER_26_47
*278 FILLER_26_70
*279 FILLER_26_80
*280 FILLER_26_85
*281 FILLER_26_93
*282 FILLER_27_19
*283 FILLER_27_27
*284 FILLER_27_29
*285 FILLER_27_41
*286 FILLER_27_53
*287 FILLER_27_57
*288 FILLER_27_65
*289 FILLER_27_7
*290 FILLER_27_80
*291 FILLER_27_85
*292 FILLER_27_89
*293 FILLER_27_97
*294 FILLER_2_15
*295 FILLER_2_27
*296 FILLER_2_29
*297 FILLER_2_3
*298 FILLER_2_41
*299 FILLER_2_53
*300 FILLER_2_65
*301 FILLER_2_77
*302 FILLER_2_83
*303 FILLER_2_85
*304 FILLER_2_97
*305 FILLER_3_15
*306 FILLER_3_27
*307 FILLER_3_3
*308 FILLER_3_39
*309 FILLER_3_51
*310 FILLER_3_55
*311 FILLER_3_57
*312 FILLER_3_80
*313 FILLER_4_15
*314 FILLER_4_27
*315 FILLER_4_29
*316 FILLER_4_3
*317 FILLER_4_97
*318 FILLER_5_102
*319 FILLER_5_15
*320 FILLER_5_3
*321 FILLER_5_55
*322 FILLER_6_15
*323 FILLER_6_27
*324 FILLER_6_29
*325 FILLER_6_3
*326 FILLER_6_53
*327 FILLER_6_77
*328 FILLER_6_91
*329 FILLER_7_15
*330 FILLER_7_21
*331 FILLER_7_3
*332 FILLER_7_57
*333 FILLER_7_91
*334 FILLER_8_29
*335 FILLER_8_3
*336 FILLER_8_38
*337 FILLER_8_69
*338 FILLER_8_7
*339 FILLER_8_82
*340 FILLER_8_93
*341 FILLER_9_102
*342 FILLER_9_15
*343 FILLER_9_23
*344 FILLER_9_3
*345 FILLER_9_52
*346 FILLER_9_94
*347 PHY_EDGE_ROW_0_Left_28
*348 PHY_EDGE_ROW_0_Right_0
*349 PHY_EDGE_ROW_10_Left_38
*350 PHY_EDGE_ROW_10_Right_10
*351 PHY_EDGE_ROW_11_Left_39
*352 PHY_EDGE_ROW_11_Right_11
*353 PHY_EDGE_ROW_12_Left_40
*354 PHY_EDGE_ROW_12_Right_12
*355 PHY_EDGE_ROW_13_Left_41
*356 PHY_EDGE_ROW_13_Right_13
*357 PHY_EDGE_ROW_14_Left_42
*358 PHY_EDGE_ROW_14_Right_14
*359 PHY_EDGE_ROW_15_Left_43
*360 PHY_EDGE_ROW_15_Right_15
*361 PHY_EDGE_ROW_16_Left_44
*362 PHY_EDGE_ROW_16_Right_16
*363 PHY_EDGE_ROW_17_Left_45
*364 PHY_EDGE_ROW_17_Right_17
*365 PHY_EDGE_ROW_18_Left_46
*366 PHY_EDGE_ROW_18_Right_18
*367 PHY_EDGE_ROW_19_Left_47
*368 PHY_EDGE_ROW_19_Right_19
*369 PHY_EDGE_ROW_1_Left_29
*370 PHY_EDGE_ROW_1_Right_1
*371 PHY_EDGE_ROW_20_Left_48
*372 PHY_EDGE_ROW_20_Right_20
*373 PHY_EDGE_ROW_21_Left_49
*374 PHY_EDGE_ROW_21_Right_21
*375 PHY_EDGE_ROW_22_Left_50
*376 PHY_EDGE_ROW_22_Right_22
*377 PHY_EDGE_ROW_23_Left_51
*378 PHY_EDGE_ROW_23_Right_23
*379 PHY_EDGE_ROW_24_Left_52
*380 PHY_EDGE_ROW_24_Right_24
*381 PHY_EDGE_ROW_25_Left_53
*382 PHY_EDGE_ROW_25_Right_25
*383 PHY_EDGE_ROW_26_Left_54
*384 PHY_EDGE_ROW_26_Right_26
*385 PHY_EDGE_ROW_27_Left_55
*386 PHY_EDGE_ROW_27_Right_27
*387 PHY_EDGE_ROW_2_Left_30
*388 PHY_EDGE_ROW_2_Right_2
*389 PHY_EDGE_ROW_3_Left_31
*390 PHY_EDGE_ROW_3_Right_3
*391 PHY_EDGE_ROW_4_Left_32
*392 PHY_EDGE_ROW_4_Right_4
*393 PHY_EDGE_ROW_5_Left_33
*394 PHY_EDGE_ROW_5_Right_5
*395 PHY_EDGE_ROW_6_Left_34
*396 PHY_EDGE_ROW_6_Right_6
*397 PHY_EDGE_ROW_7_Left_35
*398 PHY_EDGE_ROW_7_Right_7
*399 PHY_EDGE_ROW_8_Left_36
*400 PHY_EDGE_ROW_8_Right_8
*401 PHY_EDGE_ROW_9_Left_37
*402 PHY_EDGE_ROW_9_Right_9
*403 TAP_TAPCELL_ROW_0_56
*404 TAP_TAPCELL_ROW_0_57
*405 TAP_TAPCELL_ROW_0_58
*406 TAP_TAPCELL_ROW_10_72
*407 TAP_TAPCELL_ROW_10_73
*408 TAP_TAPCELL_ROW_11_74
*409 TAP_TAPCELL_ROW_12_75
*410 TAP_TAPCELL_ROW_12_76
*411 TAP_TAPCELL_ROW_13_77
*412 TAP_TAPCELL_ROW_14_78
*413 TAP_TAPCELL_ROW_14_79
*414 TAP_TAPCELL_ROW_15_80
*415 TAP_TAPCELL_ROW_16_81
*416 TAP_TAPCELL_ROW_16_82
*417 TAP_TAPCELL_ROW_17_83
*418 TAP_TAPCELL_ROW_18_84
*419 TAP_TAPCELL_ROW_18_85
*420 TAP_TAPCELL_ROW_19_86
*421 TAP_TAPCELL_ROW_1_59
*422 TAP_TAPCELL_ROW_20_87
*423 TAP_TAPCELL_ROW_20_88
*424 TAP_TAPCELL_ROW_21_89
*425 TAP_TAPCELL_ROW_22_90
*426 TAP_TAPCELL_ROW_22_91
*427 TAP_TAPCELL_ROW_23_92
*428 TAP_TAPCELL_ROW_24_93
*429 TAP_TAPCELL_ROW_24_94
*430 TAP_TAPCELL_ROW_25_95
*431 TAP_TAPCELL_ROW_26_96
*432 TAP_TAPCELL_ROW_26_97
*433 TAP_TAPCELL_ROW_27_100
*434 TAP_TAPCELL_ROW_27_98
*435 TAP_TAPCELL_ROW_27_99
*436 TAP_TAPCELL_ROW_2_60
*437 TAP_TAPCELL_ROW_2_61
*438 TAP_TAPCELL_ROW_3_62
*439 TAP_TAPCELL_ROW_4_63
*440 TAP_TAPCELL_ROW_4_64
*441 TAP_TAPCELL_ROW_5_65
*442 TAP_TAPCELL_ROW_6_66
*443 TAP_TAPCELL_ROW_6_67
*444 TAP_TAPCELL_ROW_7_68
*445 TAP_TAPCELL_ROW_8_69
*446 TAP_TAPCELL_ROW_8_70
*447 TAP_TAPCELL_ROW_9_71
*448 _030_
*449 _031_
*450 _032_
*451 _033_
*452 _034_
*453 _035_
*454 _036_
*455 _037_
*456 _038_
*457 _039_
*458 _040_
*459 _041_
*460 _042_
*461 _043_
*462 _044_
*463 _045_
*464 _046_
*465 _047_
*466 _048_
*467 _049_
*468 _050_
*469 _051_
*470 _052_
*471 _053_
*472 _054_
*473 _055_
*474 _056_
*475 _057_
*476 _058_
*477 _059_
*478 _060_
*479 _061_
*480 _062_
*481 _063_
*482 _064_
*483 _065_
*484 _066_
*485 _067_
*486 _068_
*487 _069_
*488 _070_
*489 _071_
*490 _072_
*491 _073_
*492 _074_
*493 _075_
*494 _076_
*495 _077_
*496 _078_
*497 _079_
*498 _080_
*499 _081_
*500 _082_
*501 _083_
*502 _084_
*503 _085_
*504 _086_
*505 _087_
*506 _088_
*507 _089_
*508 _090_
*509 _091_
*510 _092_
*511 _093_
*512 _094_
*513 _095_
*514 _096_
*515 _097_
*516 _098_
*517 _099_
*518 _100_
*519 _101_
*520 _102_
*521 _102__25
*522 _103_
*523 _104_
*524 _105_
*525 _106_
*526 _107_
*527 _108_
*528 _109_
*529 _110_
*530 _111_
*531 _112_
*532 _113_
*533 _114_
*534 _115_
*535 _116_
*536 clkbuf_0_clk
*537 clkbuf_2_0__f_clk
*538 clkbuf_2_1__f_clk
*539 clkbuf_2_2__f_clk
*540 clkbuf_2_3__f_clk
*541 clkload0
*542 clkload1
*543 clkload2
*544 fanout16
*545 fanout17
*546 fanout18
*547 fanout19
*548 fanout20
*549 fanout21
*550 fanout22
*551 fanout23
*552 fanout24
*553 hold1
*554 hold10
*555 hold11
*556 hold12
*557 hold13
*558 hold14
*559 hold15
*560 hold16
*561 hold17
*562 hold18
*563 hold19
*564 hold2
*565 hold20
*566 hold21
*567 hold22
*568 hold23
*569 hold24
*570 hold25
*571 hold26
*572 hold27
*573 hold28
*574 hold29
*575 hold3
*576 hold30
*577 hold31
*578 hold32
*579 hold33
*580 hold34
*581 hold35
*582 hold4
*583 hold5
*584 hold6
*585 hold7
*586 hold8
*587 hold9
*588 input1
*589 input2
*590 input3
*591 input4
*592 input5
*593 input6
*594 input7
*595 output10
*596 output11
*597 output12
*598 output13
*599 output14
*600 output15
*601 output8
*602 output9

*PORTS
clk I
decoded_out[0] O
decoded_out[1] O
decoded_out[2] O
decoded_out[3] O
decoded_out[4] O
decoded_out[5] O
decoded_out[6] O
decoded_out[7] O
rst_n I
survivor_select_00 I
survivor_select_01 I
survivor_select_10 I
survivor_select_11 I
winner_state[0] I
winner_state[1] I

*D_NET *3 0.00766867
*CONN
*P clk I
*I *536:A I *D sky130_fd_sc_hd__clkbuf_16
*CAP
1 clk 0.00228091
2 *536:A 0
3 *3:9 0.000707071
4 *3:5 0.00298799
5 *3:5 *451:A1 0
6 *3:5 *61:8 0
7 *3:5 *66:10 0.000360161
8 *3:5 *136:14 0.000195248
9 *3:5 *136:25 0
10 *3:5 *136:29 0
11 *3:5 *147:12 0
12 *3:5 *154:10 0.000125768
13 *3:9 *136:42 0.00101152
*RES
1 clk *3:5 48.14 
2 *3:5 *3:9 28.9614 
3 *3:9 *536:A 23 
*END

*D_NET *4 0.000936843
*CONN
*P decoded_out[0] O
*I *601:X O *D sky130_fd_sc_hd__buf_2
*CAP
1 decoded_out[0] 0.000242232
2 *601:X 0.000226189
3 *4:8 0.000468421
*RES
1 *601:X *4:8 42.5468 
2 *4:8 decoded_out[0] 8.9296 
*END

*D_NET *5 0.000720054
*CONN
*P decoded_out[1] O
*I *602:X O *D sky130_fd_sc_hd__buf_2
*CAP
1 decoded_out[1] 0.000343856
2 *602:X 0.000343856
3 decoded_out[1] *545:A 0
4 decoded_out[1] *162:8 3.23422e-05
*RES
1 *602:X decoded_out[1] 47.955 
*END

*D_NET *6 0.000641957
*CONN
*P decoded_out[2] O
*I *595:X O *D sky130_fd_sc_hd__buf_2
*CAP
1 decoded_out[2] 0.000289928
2 *595:X 0.000289928
3 decoded_out[2] *104:10 6.21013e-05
*RES
1 *595:X decoded_out[2] 48.5734 
*END

*D_NET *7 0.000539088
*CONN
*P decoded_out[3] O
*I *596:X O *D sky130_fd_sc_hd__buf_2
*CAP
1 decoded_out[3] 0.000265233
2 *596:X 0.000265233
3 decoded_out[3] *105:8 8.62073e-06
*RES
1 *596:X decoded_out[3] 47.1648 
*END

*D_NET *8 0.000658607
*CONN
*P decoded_out[4] O
*I *597:X O *D sky130_fd_sc_hd__buf_2
*CAP
1 decoded_out[4] 0.000296566
2 *597:X 0.000296566
3 decoded_out[4] *106:10 6.54744e-05
*RES
1 *597:X decoded_out[4] 48.5734 
*END

*D_NET *9 0.000714786
*CONN
*P decoded_out[5] O
*I *598:X O *D sky130_fd_sc_hd__buf_2
*CAP
1 decoded_out[5] 0.000318649
2 *598:X 0.000318649
3 decoded_out[5] *107:10 5.70112e-05
4 decoded_out[5] *113:14 2.04774e-05
*RES
1 *598:X decoded_out[5] 48.9255 
*END

*D_NET *10 0.000793846
*CONN
*P decoded_out[6] O
*I *599:X O *D sky130_fd_sc_hd__buf_2
*CAP
1 decoded_out[6] 0.000304733
2 *599:X 0.000304733
3 decoded_out[6] *103:10 0.000126882
4 decoded_out[6] *109:10 3.3746e-05
5 decoded_out[6] *111:133 1.01436e-05
6 decoded_out[6] *113:23 1.36079e-05
*RES
1 *599:X decoded_out[6] 48.5734 
*END

*D_NET *11 0.00108855
*CONN
*P decoded_out[7] O
*I *600:X O *D sky130_fd_sc_hd__buf_2
*CAP
1 decoded_out[7] 0.00022723
2 *600:X 0.000317046
3 *11:8 0.000544276
*RES
1 *600:X *11:8 44.6596 
2 *11:8 decoded_out[7] 8.84373 
*END

*D_NET *12 0.00106595
*CONN
*P rst_n I
*I *588:A I *D sky130_fd_sc_hd__buf_1
*CAP
1 rst_n 0.000516831
2 *588:A 0.000516831
3 *588:A *492:C 0
4 *588:A *111:143 3.22879e-05
*RES
1 rst_n *588:A 49.4343 
*END

*D_NET *13 0.000674869
*CONN
*P survivor_select_00 I
*I *589:A I *D sky130_fd_sc_hd__clkbuf_2
*CAP
1 survivor_select_00 0.000337435
2 *589:A 0.000337435
*RES
1 survivor_select_00 *589:A 48.9255 
*END

*D_NET *14 0.000671554
*CONN
*P survivor_select_01 I
*I *590:A I *D sky130_fd_sc_hd__clkbuf_2
*CAP
1 survivor_select_01 0.000335777
2 *590:A 0
3 *14:13 0.000335777
*RES
1 survivor_select_01 *14:13 28.1002 
2 *14:13 *590:A 23 
*END

*D_NET *15 0.000738202
*CONN
*P survivor_select_10 I
*I *591:A I *D sky130_fd_sc_hd__clkbuf_2
*CAP
1 survivor_select_10 0.000369101
2 *591:A 0
3 *15:13 0.000369101
*RES
1 survivor_select_10 *15:13 28.8045 
2 *15:13 *591:A 23 
*END

*D_NET *16 0.000633767
*CONN
*P survivor_select_11 I
*I *592:A I *D sky130_fd_sc_hd__clkbuf_2
*CAP
1 survivor_select_11 0.000316883
2 *592:A 0
3 *16:13 0.000316883
*RES
1 survivor_select_11 *16:13 27.3959 
2 *16:13 *592:A 23 
*END

*D_NET *17 0.000886259
*CONN
*P winner_state[0] I
*I *593:A I *D sky130_fd_sc_hd__clkbuf_1
*CAP
1 winner_state[0] 0.00044313
2 *593:A 0.00044313
*RES
1 winner_state[0] *593:A 47.3214 
*END

*D_NET *18 0.000886259
*CONN
*P winner_state[1] I
*I *594:A I *D sky130_fd_sc_hd__clkbuf_1
*CAP
1 winner_state[1] 0.00044313
2 *594:A 0.00044313
*RES
1 winner_state[1] *594:A 47.3214 
*END

*D_NET *19 0.00348261
*CONN
*I *474:A0 I *D sky130_fd_sc_hd__mux4_1
*I *560:A I *D sky130_fd_sc_hd__dlygate4sd3_1
*I *507:Q O *D sky130_fd_sc_hd__dfrtp_1
*CAP
1 *474:A0 0.000149972
2 *560:A 0.000154882
3 *507:Q 0.000303433
4 *19:10 0.000608288
5 *474:A0 *474:A2 9.41704e-05
6 *474:A0 *502:RESET_B 0.000205999
7 *474:A0 *39:40 4.67488e-05
8 *474:A0 *115:14 1.41891e-05
9 *474:A0 *115:104 3.21208e-05
10 *474:A0 *158:12 3.67392e-05
11 *560:A *538:A 0.000267149
12 *560:A *115:14 0.000366105
13 *19:10 *502:RESET_B 0.000275954
14 *19:10 *507:RESET_B 0.000294039
15 *19:10 *156:12 7.73389e-05
16 *19:10 *158:12 0.000555481
*RES
1 *507:Q *19:10 47.1143 
2 *19:10 *560:A 43.3857 
3 *19:10 *474:A0 42.06 
*END

*D_NET *20 0.00507503
*CONN
*I *475:A I *D sky130_fd_sc_hd__or3_1
*I *455:A0 I *D sky130_fd_sc_hd__mux2_1
*I *555:A I *D sky130_fd_sc_hd__dlygate4sd3_1
*I *508:Q O *D sky130_fd_sc_hd__dfrtp_1
*CAP
1 *475:A 0.000119344
2 *455:A0 0.00030744
3 *555:A 0.000266619
4 *508:Q 0.000268244
5 *20:21 0.000850486
6 *20:10 0.000958565
7 *455:A0 *477:A_N 9.58714e-05
8 *455:A0 *59:10 0.000233204
9 *455:A0 *93:10 1.85916e-05
10 *455:A0 *94:10 5.12254e-05
11 *455:A0 *111:70 0.000311549
12 *455:A0 *115:22 2.43944e-05
13 *455:A0 *115:33 1.59094e-05
14 *475:A *59:10 0
15 *475:A *100:47 5.51294e-05
16 *475:A *117:10 0
17 *475:A *117:62 3.47781e-05
18 *555:A *132:10 5.82853e-05
19 *20:10 *100:12 0.000101958
20 *20:10 *100:23 1.74126e-05
21 *20:10 *100:56 4.73379e-05
22 *20:10 *100:117 0.000230726
23 *20:10 *115:97 0.000132638
24 *20:10 *116:10 0.00022823
25 *20:21 *72:10 0.000141879
26 *20:21 *93:10 8.4047e-05
27 *20:21 *100:23 0.000119593
28 *20:21 *100:34 0.00016277
29 *20:21 *100:47 1.83564e-05
30 *20:21 *117:14 0
31 *20:21 *132:10 0.000120446
*RES
1 *508:Q *20:10 45.6021 
2 *20:10 *555:A 42.9093 
3 *20:10 *20:21 9.30071 
4 *20:21 *455:A0 45.4571 
5 *20:21 *475:A 40.2579 
*END

*D_NET *21 0.00195443
*CONN
*I *580:A I *D sky130_fd_sc_hd__dlygate4sd3_1
*I *585:A I *D sky130_fd_sc_hd__dlygate4sd3_1
*I *509:Q O *D sky130_fd_sc_hd__dfrtp_1
*CAP
1 *580:A 0.000230485
2 *585:A 0
3 *509:Q 0.000299176
4 *21:10 0.000529662
5 *580:A *482:A_N 0.000228909
6 *580:A *544:A 0
7 *580:A *103:28 0
8 *580:A *110:10 4.58924e-05
9 *580:A *110:23 4.21594e-06
10 *580:A *117:62 0
11 *21:10 *475:B 9.84794e-05
12 *21:10 *544:A 0
13 *21:10 *100:47 9.67842e-05
14 *21:10 *111:35 0.000187129
15 *21:10 *111:49 0.000112598
16 *21:10 *117:62 0
17 *21:10 *127:10 0.000121099
*RES
1 *509:Q *21:10 45.0429 
2 *21:10 *585:A 38 
3 *21:10 *580:A 43.1371 
*END

*D_NET *22 0.0060996
*CONN
*I *469:A0 I *D sky130_fd_sc_hd__mux2_1
*I *485:A I *D sky130_fd_sc_hd__or3_1
*I *577:A I *D sky130_fd_sc_hd__dlygate4sd3_1
*I *510:Q O *D sky130_fd_sc_hd__dfrtp_1
*CAP
1 *469:A0 0.000484031
2 *485:A 0
3 *577:A 0.000325039
4 *510:Q 0.000185676
5 *22:29 0.000469074
6 *22:21 0.00108343
7 *22:10 0.000641042
8 *469:A0 *457:A1 5.3304e-05
9 *469:A0 *469:S 2.55934e-05
10 *469:A0 *511:CLK 9.33022e-05
11 *469:A0 *36:27 0.000195743
12 *469:A0 *118:70 0
13 *469:A0 *125:81 0.000289239
14 *577:A *504:RESET_B 3.08719e-06
15 *577:A *36:10 0.000140601
16 *22:10 *450:A1 2.72541e-05
17 *22:10 *481:A 6.79006e-05
18 *22:10 *125:81 0.000139647
19 *22:10 *147:47 2.93335e-05
20 *22:21 *481:A 3.0647e-05
21 *22:21 *510:RESET_B 0
22 *22:21 *118:72 0
23 *22:21 *125:81 0.00021197
24 *22:29 *525:RESET_B 0.000227208
25 *22:29 *36:14 0.000693005
26 *22:29 *42:38 0.000182944
27 *22:29 *110:40 1.24376e-05
28 *22:29 *112:54 0.000103637
29 *22:29 *112:58 0.000384453
*RES
1 *510:Q *22:10 41.48 
2 *22:10 *577:A 43.8621 
3 *22:10 *22:21 2.96214 
4 *22:21 *22:29 30.5564 
5 *22:29 *485:A 23 
6 *22:21 *469:A0 47.3214 
*END

*D_NET *23 0.00473712
*CONN
*I *556:A I *D sky130_fd_sc_hd__dlygate4sd3_1
*I *581:A I *D sky130_fd_sc_hd__dlygate4sd3_1
*I *511:Q O *D sky130_fd_sc_hd__dfrtp_1
*CAP
1 *556:A 0
2 *581:A 0
3 *511:Q 0.000143533
4 *23:33 0.00101049
5 *23:12 0.000234014
6 *23:6 0.00138804
7 *23:6 *469:S 9.91798e-05
8 *23:12 *79:10 0.000165593
9 *23:12 *81:10 8.85189e-05
10 *23:12 *90:33 3.82956e-05
11 *23:12 *90:48 0.000134687
12 *23:12 *114:70 0.000119761
13 *23:33 *469:S 6.9805e-05
14 *23:33 *470:A0 0.000139352
15 *23:33 *512:D 4.84079e-05
16 *23:33 *512:RESET_B 0.000136505
17 *23:33 *24:10 0.00055415
18 *23:33 *82:10 1.01436e-05
19 *23:33 *90:48 0
20 *23:33 *110:64 0
21 *23:33 *114:85 0.000103647
22 *23:33 *118:25 0.000158825
23 *23:33 *133:6 9.41704e-05
*RES
1 *511:Q *23:6 25.0507 
2 *23:6 *23:12 36.8357 
3 *23:12 *581:A 23 
4 *23:6 *23:33 48.6843 
5 *23:33 *556:A 23 
*END

*D_NET *24 0.00209813
*CONN
*I *578:A I *D sky130_fd_sc_hd__dlygate4sd3_1
*I *512:Q O *D sky130_fd_sc_hd__dfrtp_1
*CAP
1 *578:A 0
2 *512:Q 0.00055932
3 *24:10 0.00055932
4 *24:10 *532:RESET_B 0.000169674
5 *24:10 *103:28 0.00014065
6 *24:10 *118:10 0.000115013
7 *23:33 *24:10 0.00055415
*RES
1 *512:Q *24:10 48.005 
2 *24:10 *578:A 38 
*END

*D_NET *25 7.06952e-05
*CONN
*I *579:A I *D sky130_fd_sc_hd__dlygate4sd3_1
*I *513:Q O *D sky130_fd_sc_hd__dfrtp_1
*CAP
1 *579:A 2.3833e-05
2 *513:Q 2.3833e-05
3 *579:A *513:RESET_B 2.30292e-05
*RES
1 *513:Q *579:A 46.6214 
*END

*D_NET *26 0.00629103
*CONN
*I *454:A1 I *D sky130_fd_sc_hd__mux2_1
*I *562:A I *D sky130_fd_sc_hd__dlygate4sd3_1
*I *474:A1 I *D sky130_fd_sc_hd__mux4_1
*I *514:Q O *D sky130_fd_sc_hd__dfrtp_1
*CAP
1 *454:A1 0
2 *562:A 0
3 *474:A1 0
4 *514:Q 0
5 *26:42 0.000717928
6 *26:27 0.00153014
7 *26:12 0.000321187
8 *26:4 0.0011334
9 *26:12 *502:RESET_B 5.20238e-05
10 *26:12 *98:12 7.98226e-05
11 *26:12 *116:24 3.82058e-06
12 *26:12 *116:28 1.24077e-05
13 *26:12 *144:8 0.000324963
14 *26:27 *466:A0 1.57556e-05
15 *26:27 *466:A1 5.58003e-05
16 *26:27 *100:117 0.000195194
17 *26:27 *114:52 0.000131988
18 *26:27 *116:10 2.35118e-06
19 *26:27 *116:24 1.72003e-05
20 *26:27 *120:10 0.000294375
21 *26:42 *71:10 0.000582967
22 *26:42 *100:23 0
23 *26:42 *100:34 0
24 *26:42 *115:22 0.000535111
25 *26:42 *120:10 5.82853e-05
26 *26:42 *139:6 0.000226306
*RES
1 *514:Q *26:4 23 
2 *26:4 *26:12 36.7736 
3 *26:12 *474:A1 23 
4 *26:4 *26:27 44.3136 
5 *26:27 *562:A 23 
6 *26:27 *26:42 46.095 
7 *26:42 *454:A1 23 
*END

*D_NET *27 0.00349051
*CONN
*I *583:A I *D sky130_fd_sc_hd__dlygate4sd3_1
*I *477:C I *D sky130_fd_sc_hd__and3b_1
*I *515:Q O *D sky130_fd_sc_hd__dfrtp_1
*CAP
1 *583:A 0.000550364
2 *477:C 0
3 *515:Q 0.000406172
4 *27:12 0.000151573
5 *27:6 0.00110811
6 *583:A *467:A0 0.000352426
7 *583:A *126:10 1.5769e-05
8 *27:6 *467:A0 0.000356724
9 *27:6 *114:52 4.39725e-05
10 *27:6 *126:18 4.95081e-05
11 *27:12 *479:A2 0.000193388
12 *27:12 *91:8 6.99679e-05
13 *27:12 *100:34 1.44813e-05
14 *27:12 *115:22 6.08032e-05
15 *27:12 *115:33 0.000117254
*RES
1 *515:Q *27:6 29.3386 
2 *27:6 *27:12 34.3707 
3 *27:12 *477:C 23 
4 *27:6 *583:A 31.1407 
*END

*D_NET *28 0.00314749
*CONN
*I *468:A1 I *D sky130_fd_sc_hd__mux2_1
*I *480:C I *D sky130_fd_sc_hd__and3b_1
*I *559:A I *D sky130_fd_sc_hd__dlygate4sd3_1
*I *516:Q O *D sky130_fd_sc_hd__dfrtp_1
*CAP
1 *468:A1 0.00027012
2 *480:C 0.000127129
3 *559:A 0
4 *516:Q 0.000437463
5 *28:14 0.000227486
6 *28:10 0.00080794
7 *468:A1 *468:A0 5.21127e-05
8 *468:A1 *90:27 1.12487e-05
9 *468:A1 *95:10 8.85189e-05
10 *468:A1 *114:64 1.94693e-05
11 *468:A1 *128:10 6.35146e-05
12 *468:A1 *136:83 0.000137226
13 *468:A1 *137:8 0.000114083
14 *480:C *482:B 2.93747e-05
15 *480:C *95:10 3.71251e-05
16 *28:10 *479:A1 4.18957e-05
17 *28:10 *503:RESET_B 2.56078e-05
18 *28:10 *90:27 6.32688e-05
19 *28:10 *117:80 0.000339383
20 *28:10 *128:8 7.88926e-05
21 *28:10 *128:10 7.30978e-05
22 *28:14 *95:10 4.75206e-05
23 *28:14 *136:83 5.50106e-05
*RES
1 *516:Q *28:10 48.73 
2 *28:10 *28:14 17.0507 
3 *28:14 *559:A 23 
4 *28:14 *480:C 25.5479 
5 *28:10 *468:A1 44.4629 
*END

*D_NET *29 0.00135537
*CONN
*I *487:C I *D sky130_fd_sc_hd__and3b_1
*I *568:A I *D sky130_fd_sc_hd__dlygate4sd3_1
*I *517:Q O *D sky130_fd_sc_hd__dfrtp_1
*CAP
1 *487:C 0.000164144
2 *568:A 9.7432e-05
3 *517:Q 0.000191867
4 *29:8 0.000453443
5 *487:C *487:A_N 5.50049e-05
6 *487:C *487:B 1.39431e-05
7 *487:C *533:RESET_B 0.00022109
8 *487:C *110:74 1.22803e-05
9 *487:C *110:82 4.78793e-05
10 *487:C *118:70 0
11 *568:A *110:82 6.6869e-05
12 *568:A *118:70 0
13 *29:8 *517:RESET_B 1.39317e-05
14 *29:8 *533:RESET_B 1.74848e-05
*RES
1 *517:Q *29:8 40.5271 
2 *29:8 *568:A 39.9057 
3 *29:8 *487:C 42.0807 
*END

*D_NET *30 0.00545912
*CONN
*I *566:A I *D sky130_fd_sc_hd__dlygate4sd3_1
*I *470:A1 I *D sky130_fd_sc_hd__mux2_1
*I *491:C I *D sky130_fd_sc_hd__and3b_1
*I *518:Q O *D sky130_fd_sc_hd__dfrtp_1
*CAP
1 *566:A 0.000340699
2 *470:A1 0
3 *491:C 0
4 *518:Q 0.000481415
5 *30:29 0.000156305
6 *30:23 0.000824179
7 *30:12 0.000353765
8 *30:6 0.00116236
9 *566:A *557:A 9.30151e-05
10 *566:A *38:14 0.000182832
11 *566:A *143:10 2.13733e-05
12 *30:6 *506:CLK 3.22879e-05
13 *30:6 *506:D 0.000201109
14 *30:6 *102:97 8.1796e-05
15 *30:12 *527:RESET_B 0.000275473
16 *30:12 *44:10 0.000299187
17 *30:12 *82:10 8.16253e-05
18 *30:12 *84:10 0
19 *30:12 *110:64 2.29192e-05
20 *30:12 *110:118 0.000112763
21 *30:12 *124:8 4.08641e-05
22 *30:23 *506:D 0.000252692
23 *30:23 *557:A 6.9805e-05
24 *30:23 *38:14 0.000183733
25 *30:29 *499:B1 2.38166e-05
26 *30:29 *62:10 2.47097e-05
27 *30:29 *86:12 0
28 *30:29 *114:85 1.14452e-05
29 *30:29 *133:19 1.22803e-05
30 *30:29 *134:8 8.05936e-05
31 *30:29 *143:10 3.60842e-05
*RES
1 *518:Q *30:6 30.2914 
2 *30:6 *30:12 39.6529 
3 *30:12 *491:C 23 
4 *30:6 *30:23 6.50429 
5 *30:23 *30:29 33.6664 
6 *30:29 *470:A1 23 
7 *30:23 *566:A 29.3593 
*END

*D_NET *31 0.000891699
*CONN
*I *496:B I *D sky130_fd_sc_hd__and3b_1
*I *519:Q O *D sky130_fd_sc_hd__dfrtp_1
*CAP
1 *496:B 0
2 *519:Q 0.000181632
3 *31:10 0.000181632
4 *31:10 *492:C 5.20202e-05
5 *31:10 *44:10 8.4047e-05
6 *31:10 *84:10 0
7 *31:10 *110:118 0.000165453
8 *31:10 *113:38 0.000171906
9 *31:10 *119:29 5.50106e-05
*RES
1 *519:Q *31:10 42.64 
2 *31:10 *496:B 38 
*END

*D_NET *32 0.000801576
*CONN
*I *553:A I *D sky130_fd_sc_hd__dlygate4sd3_1
*I *520:Q O *D sky130_fd_sc_hd__dfrtp_1
*CAP
1 *553:A 0.000146814
2 *520:Q 0.000194428
3 *32:8 0.000341242
4 *553:A *513:D 0.000119091
5 *32:8 *528:CLK 0
6 *32:8 *528:RESET_B 0
7 *32:8 *100:60 0
8 *32:8 *100:62 0
9 *32:8 *100:64 0
10 *32:8 *116:82 0
*RES
1 *520:Q *32:8 41.3143 
2 *32:8 *553:A 41.0036 
*END

*D_NET *33 0.00432895
*CONN
*I *563:A I *D sky130_fd_sc_hd__dlygate4sd3_1
*I *474:A2 I *D sky130_fd_sc_hd__mux4_1
*I *501:Q O *D sky130_fd_sc_hd__dfrtp_1
*CAP
1 *563:A 0
2 *474:A2 0.000828297
3 *501:Q 0.000531286
4 *33:39 0.000177671
5 *33:6 0.00153725
6 *474:A2 *460:A0 0.000114181
7 *474:A2 *460:A1 9.62115e-05
8 *474:A2 *460:S 0.000138394
9 *474:A2 *501:CLK 0.000189671
10 *474:A2 *39:40 0.000112945
11 *474:A2 *52:10 3.22879e-05
12 *474:A2 *125:25 0.000129523
13 *33:6 *501:CLK 2.50118e-05
14 *33:39 *523:D 2.93747e-05
15 *33:39 *125:10 0.000195248
16 *33:39 *136:29 9.74235e-05
17 *474:A0 *474:A2 9.41704e-05
*RES
1 *501:Q *33:6 32.6736 
2 *33:6 *474:A2 41.4616 
3 *33:6 *33:39 34.1843 
4 *33:39 *563:A 23 
*END

*D_NET *34 0.0038515
*CONN
*I *478:B I *D sky130_fd_sc_hd__and2b_1
*I *587:A I *D sky130_fd_sc_hd__dlygate4sd3_1
*I *502:Q O *D sky130_fd_sc_hd__dfrtp_1
*CAP
1 *478:B 0.00014838
2 *587:A 0.00099789
3 *502:Q 0.000127275
4 *34:10 0.00114627
5 *34:8 0.000127275
6 *478:B *478:A_N 6.17437e-06
7 *587:A *461:S 2.32101e-05
8 *587:A *478:A_N 5.12254e-05
9 *587:A *558:A 0.000516917
10 *587:A *40:16 0.000405196
11 *587:A *130:6 4.95081e-05
12 *34:8 *474:S1 9.69237e-05
13 *34:8 *476:C 3.35885e-06
14 *34:8 *115:113 0.000151899
*RES
1 *502:Q *34:8 42.0186 
2 *34:8 *34:10 15 
3 *34:10 *587:A 40.4829 
4 *34:10 *478:B 25.0714 
*END

*D_NET *35 0.00486528
*CONN
*I *482:B I *D sky130_fd_sc_hd__and2b_1
*I *570:A I *D sky130_fd_sc_hd__dlygate4sd3_1
*I *503:Q O *D sky130_fd_sc_hd__dfrtp_1
*CAP
1 *482:B 0.000338043
2 *570:A 5.94105e-05
3 *503:Q 0.00026143
4 *35:29 0.00118678
5 *35:12 0.000931419
6 *35:8 0.000284699
7 *482:B *480:B 5.3304e-05
8 *482:B *482:A_N 0.000617576
9 *570:A *60:10 5.70419e-05
10 *35:8 *41:10 0
11 *35:8 *41:21 0
12 *35:8 *98:12 0
13 *35:8 *98:34 0.000101339
14 *35:8 *136:50 0
15 *35:29 *456:A0 0.000305425
16 *35:29 *484:A4 1.74848e-05
17 *35:29 *503:CLK 0.000191166
18 *35:29 *532:D 1.59094e-05
19 *35:29 *90:27 9.4713e-05
20 *35:29 *90:33 2.32101e-05
21 *35:29 *102:14 5.33597e-05
22 *35:29 *115:37 0.000243587
23 *480:C *482:B 2.93747e-05
*RES
1 *503:Q *35:8 43.075 
2 *35:8 *35:12 15.6214 
3 *35:12 *570:A 24.5743 
4 *35:12 *35:29 43.8371 
5 *35:29 *482:B 30.7679 
*END

*D_NET *36 0.00663629
*CONN
*I *572:A I *D sky130_fd_sc_hd__dlygate4sd3_1
*I *488:B I *D sky130_fd_sc_hd__and2b_1
*I *504:Q O *D sky130_fd_sc_hd__dfrtp_1
*CAP
1 *572:A 0
2 *488:B 0
3 *504:Q 0.000431257
4 *36:27 0.000945369
5 *36:14 0.00053116
6 *36:10 0.00190779
7 *36:10 *54:8 0
8 *36:10 *125:81 0.000189309
9 *36:14 *525:RESET_B 1.03411e-05
10 *36:14 *42:10 9.29579e-06
11 *36:14 *81:10 5.67058e-05
12 *36:14 *145:10 0.000223692
13 *36:14 *159:10 9.75779e-05
14 *36:27 *569:A 0.000445858
15 *36:27 *54:8 0
16 *36:27 *125:81 0.000121413
17 *36:27 *125:85 3.72443e-05
18 *36:27 *146:10 0.000156264
19 *36:27 *150:6 0.000225399
20 *36:27 *150:25 0.000218268
21 *469:A0 *36:27 0.000195743
22 *577:A *36:10 0.000140601
23 *22:29 *36:14 0.000693005
*RES
1 *504:Q *36:10 45.0429 
2 *36:10 *36:14 27.0557 
3 *36:14 *488:B 23 
4 *36:10 *36:27 36.1493 
5 *36:27 *572:A 23 
*END

*D_NET *37 0.00148772
*CONN
*I *493:B I *D sky130_fd_sc_hd__and2b_1
*I *564:A I *D sky130_fd_sc_hd__dlygate4sd3_1
*I *505:Q O *D sky130_fd_sc_hd__dfrtp_1
*CAP
1 *493:B 0.000271273
2 *564:A 0
3 *505:Q 0.000266372
4 *37:12 0.000339341
5 *37:8 0.00033444
6 *493:B *112:103 0.000230407
7 *37:8 *452:A1 4.58924e-05
8 *37:8 *112:103 0
9 *37:8 *122:8 0
10 *37:8 *123:8 0
11 *37:8 *147:84 0
*RES
1 *505:Q *37:8 43.075 
2 *37:8 *37:12 16.0979 
3 *37:12 *564:A 23 
4 *37:12 *493:B 29.0279 
*END

*D_NET *38 0.00207977
*CONN
*I *498:B I *D sky130_fd_sc_hd__and2b_1
*I *506:Q O *D sky130_fd_sc_hd__dfrtp_1
*CAP
1 *498:B 9.04389e-05
2 *506:Q 0.000495992
3 *38:14 0.000586431
4 *498:B *499:A4 9.67842e-05
5 *498:B *90:69 2.02872e-05
6 *38:14 *499:B1 0.000282795
7 *38:14 *534:RESET_B 9.96114e-05
8 *38:14 *86:12 0
9 *38:14 *103:28 0
10 *38:14 *111:123 0
11 *38:14 *118:10 4.08641e-05
12 *566:A *38:14 0.000182832