*SPEF "ieee 1481-1999"
*DESIGN "Controller"
*DATE "18:58:22 Wednesday January 21, 2026"
*VENDOR "The OpenROAD Project"
*PROGRAM "OpenROAD"
*VERSION "edf00dff99f6c40d67a30c0e22a8191c5d2ed9d6"
*DESIGN_FLOW "NAME_SCOPE LOCAL" "PIN_CAP NONE"
*DIVIDER /
*DELIMITER :
*BUS_DELIMITER []
*T_UNIT 1 NS
*C_UNIT 1 PF
*R_UNIT 1 OHM
*L_UNIT 1 HENRY

*NAME_MAP
*3 clk
*4 clr_me
*5 frame_done
*6 rst_n
*7 start
*8 _00_
*9 _01_
*10 _02_
*11 _03_
*12 _04_
*13 _05_
*14 _06_
*15 _07_
*16 _08_
*17 _09_
*18 _10_
*19 _11_
*20 _12_
*21 clknet_0_clk
*22 clknet_1_0__leaf_clk
*23 clknet_1_1__leaf_clk
*24 net1
*25 net2
*26 net3
*27 net4
*28 net5
*29 net6
*30 net7
*31 next_state\[0\]
*32 next_state\[1\]
*33 state\[0\]
*34 state\[1\]
*35 sym_cnt\[0\]
*36 sym_cnt\[1\]
*37 sym_cnt\[2\]
*38 sym_cnt\[3\]
*39 FILLER_0_109
*40 FILLER_0_113
*41 FILLER_0_125
*42 FILLER_0_137
*43 FILLER_0_141
*44 FILLER_0_15
*45 FILLER_0_153
*46 FILLER_0_165
*47 FILLER_0_173
*48 FILLER_0_185
*49 FILLER_0_189
*50 FILLER_0_19
*51 FILLER_0_29
*52 FILLER_0_3
*53 FILLER_0_57
*54 FILLER_0_79
*55 FILLER_0_83
*56 FILLER_0_85
*57 FILLER_0_97
*58 FILLER_1_105
*59 FILLER_1_111
*60 FILLER_1_113
*61 FILLER_1_125
*62 FILLER_1_137
*63 FILLER_1_149
*64 FILLER_1_15
*65 FILLER_1_161
*66 FILLER_1_167
*67 FILLER_1_169
*68 FILLER_1_181
*69 FILLER_1_189
*70 FILLER_1_27
*71 FILLER_1_3
*72 FILLER_1_31
*73 FILLER_1_55
*74 FILLER_1_57
*75 FILLER_2_108
*76 FILLER_2_120
*77 FILLER_2_132
*78 FILLER_2_141
*79 FILLER_2_15
*80 FILLER_2_153
*81 FILLER_2_165
*82 FILLER_2_177
*83 FILLER_2_189
*84 FILLER_2_21
*85 FILLER_2_3
*86 FILLER_2_58
*87 FILLER_2_79
*88 FILLER_2_85
*89 FILLER_3_108
*90 FILLER_3_113
*91 FILLER_3_125
*92 FILLER_3_137
*93 FILLER_3_149
*94 FILLER_3_15
*95 FILLER_3_161
*96 FILLER_3_167
*97 FILLER_3_169
*98 FILLER_3_181
*99 FILLER_3_189
*100 FILLER_3_27
*101 FILLER_3_3
*102 FILLER_3_41
*103 FILLER_3_52
*104 FILLER_3_96
*105 FILLER_4_109
*106 FILLER_4_121
*107 FILLER_4_133
*108 FILLER_4_139
*109 FILLER_4_141
*110 FILLER_4_153
*111 FILLER_4_165
*112 FILLER_4_177
*113 FILLER_4_18
*114 FILLER_4_185
*115 FILLER_4_26
*116 FILLER_4_29
*117 FILLER_4_41
*118 FILLER_4_48
*119 FILLER_4_6
*120 FILLER_4_83
*121 FILLER_4_85
*122 FILLER_4_97
*123 FILLER_5_109
*124 FILLER_5_113
*125 FILLER_5_125
*126 FILLER_5_137
*127 FILLER_5_149
*128 FILLER_5_15
*129 FILLER_5_161
*130 FILLER_5_167
*131 FILLER_5_169
*132 FILLER_5_181
*133 FILLER_5_189
*134 FILLER_5_27
*135 FILLER_5_3
*136 FILLER_5_39
*137 FILLER_5_51
*138 FILLER_5_55
*139 FILLER_5_57
*140 FILLER_5_73
*141 FILLER_5_85
*142 FILLER_5_97
*143 FILLER_6_109
*144 FILLER_6_121
*145 FILLER_6_133
*146 FILLER_6_139
*147 FILLER_6_141
*148 FILLER_6_15
*149 FILLER_6_153
*150 FILLER_6_165
*151 FILLER_6_177
*152 FILLER_6_189
*153 FILLER_6_27
*154 FILLER_6_29
*155 FILLER_6_3
*156 FILLER_6_41
*157 FILLER_6_53
*158 FILLER_6_65
*159 FILLER_6_77
*160 FILLER_6_83
*161 FILLER_6_85
*162 FILLER_6_97
*163 FILLER_7_109
*164 FILLER_7_113
*165 FILLER_7_125
*166 FILLER_7_137
*167 FILLER_7_141
*168 FILLER_7_15
*169 FILLER_7_153
*170 FILLER_7_165
*171 FILLER_7_169
*172 FILLER_7_181
*173 FILLER_7_189
*174 FILLER_7_27
*175 FILLER_7_29
*176 FILLER_7_3
*177 FILLER_7_41
*178 FILLER_7_53
*179 FILLER_7_57
*180 FILLER_7_69
*181 FILLER_7_81
*182 FILLER_7_85
*183 FILLER_7_97
*184 PHY_EDGE_ROW_0_Left_8
*185 PHY_EDGE_ROW_0_Right_0
*186 PHY_EDGE_ROW_1_Left_9
*187 PHY_EDGE_ROW_1_Right_1
*188 PHY_EDGE_ROW_2_Left_10
*189 PHY_EDGE_ROW_2_Right_2
*190 PHY_EDGE_ROW_3_Left_11
*191 PHY_EDGE_ROW_3_Right_3
*192 PHY_EDGE_ROW_4_Left_12
*193 PHY_EDGE_ROW_4_Right_4
*194 PHY_EDGE_ROW_5_Left_13
*195 PHY_EDGE_ROW_5_Right_5
*196 PHY_EDGE_ROW_6_Left_14
*197 PHY_EDGE_ROW_6_Right_6
*198 PHY_EDGE_ROW_7_Left_15
*199 PHY_EDGE_ROW_7_Right_7
*200 TAP_TAPCELL_ROW_0_16
*201 TAP_TAPCELL_ROW_0_17
*202 TAP_TAPCELL_ROW_0_18
*203 TAP_TAPCELL_ROW_0_19
*204 TAP_TAPCELL_ROW_0_20
*205 TAP_TAPCELL_ROW_0_21
*206 TAP_TAPCELL_ROW_1_22
*207 TAP_TAPCELL_ROW_1_23
*208 TAP_TAPCELL_ROW_1_24
*209 TAP_TAPCELL_ROW_2_25
*210 TAP_TAPCELL_ROW_2_26
*211 TAP_TAPCELL_ROW_2_27
*212 TAP_TAPCELL_ROW_3_28
*213 TAP_TAPCELL_ROW_3_29
*214 TAP_TAPCELL_ROW_3_30
*215 TAP_TAPCELL_ROW_4_31
*216 TAP_TAPCELL_ROW_4_32
*217 TAP_TAPCELL_ROW_4_33
*218 TAP_TAPCELL_ROW_5_34
*219 TAP_TAPCELL_ROW_5_35
*220 TAP_TAPCELL_ROW_5_36
*221 TAP_TAPCELL_ROW_6_37
*222 TAP_TAPCELL_ROW_6_38
*223 TAP_TAPCELL_ROW_6_39
*224 TAP_TAPCELL_ROW_7_40
*225 TAP_TAPCELL_ROW_7_41
*226 TAP_TAPCELL_ROW_7_42
*227 TAP_TAPCELL_ROW_7_43
*228 TAP_TAPCELL_ROW_7_44
*229 TAP_TAPCELL_ROW_7_45
*230 _13_
*231 _14_
*232 _15_
*233 _16_
*234 _17_
*235 _18_
*236 _19_
*237 _20_
*238 _21_
*239 _22_
*240 _23_
*241 _24_
*242 _25_
*243 _26_
*244 _27_
*245 _28_
*246 _29_
*247 _30_
*248 _31_
*249 _32_
*250 _33_
*251 _34_
*252 _35_
*253 clkbuf_0_clk
*254 clkbuf_1_0__f_clk
*255 clkbuf_1_1__f_clk
*256 hold1
*257 hold2
*258 hold3
*259 input1
*260 input2
*261 output3
*262 output4

*PORTS
clk I
clr_me O
frame_done O
rst_n I
start I

*D_NET *3 0.00248997
*CONN
*P clk I
*I *253:A I *D sky130_fd_sc_hd__clkbuf_16
*CAP
1 clk 0.000914631
2 *253:A 0.000914631
3 *253:A *236:B 0.000117445
4 *253:A *250:D 0
5 *253:A *255:A 0.000395045
6 *253:A *18:10 3.1835e-05
7 *253:A *23:8 9.27255e-06
8 *253:A *27:41 0.000107112
*RES
1 clk *253:A 21.12 
*END

*D_NET *4 0.00089144
*CONN
*P clr_me O
*I *261:X O *D sky130_fd_sc_hd__buf_2
*CAP
1 clr_me 0.000425263
2 *261:X 0.000425263
3 clr_me *243:A1 1.08758e-05
4 clr_me *261:A 3.00381e-05
*RES
1 *261:X clr_me 10.53 
*END

*D_NET *5 0.000424762
*CONN
*P frame_done O
*I *262:X O *D sky130_fd_sc_hd__buf_2
*CAP
1 frame_done 0.000206525
2 *262:X 0.000206525
3 frame_done *27:41 1.17114e-05
*RES
1 *262:X frame_done 4.84677 
*END

*D_NET *6 0.000859139
*CONN
*P rst_n I
*I *259:A I *D sky130_fd_sc_hd__clkbuf_2
*CAP
1 rst_n 0.000429569
2 *259:A 0.000429569
*RES
1 rst_n *259:A 10.785 
*END

*D_NET *7 0.000492905
*CONN
*P start I
*I *260:A I *D sky130_fd_sc_hd__clkbuf_1
*CAP
1 start 0.000246453
2 *260:A 0.000246453
*RES
1 start *260:A 7.18217 
*END

*D_NET *8 0.00105388
*CONN
*I *249:D I *D sky130_fd_sc_hd__dfrtp_1
*I *233:Y O *D sky130_fd_sc_hd__nor2_1
*CAP
1 *249:D 0.000259605
2 *233:Y 0.000259605
3 *249:D *252:D 0.000146319
4 *249:D *19:16 0.000135202
5 *249:D *33:23 7.24682e-05
6 *249:D *33:36 0.000180682
*RES
1 *233:Y *249:D 13.35 
*END

*D_NET *9 0.00116155
*CONN
*I *250:D I *D sky130_fd_sc_hd__dfrtp_1
*I *236:X O *D sky130_fd_sc_hd__and3_1
*CAP
1 *250:D 0.000495796
2 *236:X 0.000495796
3 *250:D *236:A 6.96579e-05
4 *250:D *236:B 0
5 *250:D *250:CLK 9.19672e-05
6 *250:D *24:22 8.3303e-06
7 *253:A *250:D 0
*RES
1 *236:X *250:D 15.345 
*END

*D_NET *10 0.000570407
*CONN
*I *251:D I *D sky130_fd_sc_hd__dfrtp_1
*I *239:X O *D sky130_fd_sc_hd__and3_1
*CAP
1 *251:D 0.000116487
2 *239:X 0.000116487
3 *251:D *239:C 3.42142e-05
4 *251:D *240:A 3.00381e-05
5 *251:D *240:C 7.81829e-05
6 *251:D *24:36 0.000194997
*RES
1 *239:X *251:D 10.755 
*END

*D_NET *11 0.00124065
*CONN
*I *252:D I *D sky130_fd_sc_hd__dfrtp_1
*I *240:X O *D sky130_fd_sc_hd__and3_1
*CAP
1 *252:D 0.000368306
2 *240:X 0.000368306
3 *252:D *231:A_N 0
4 *252:D *233:A 0.000200615
5 *252:D *249:CLK 5.92269e-05
6 *252:D *251:CLK 9.78798e-05
7 *252:D *13:40 0
8 *252:D *34:30 0
9 *249:D *252:D 0.000146319
*RES
1 *240:X *252:D 14.235 
*END

*D_NET *12 0.000286535
*CONN
*I *246:A1 I *D sky130_fd_sc_hd__a211oi_1
*I *230:Y O *D sky130_fd_sc_hd__inv_2
*CAP
1 *246:A1 0.000108438
2 *230:Y 0.000108438
3 *246:A1 *246:C1 6.96579e-05
*RES
1 *230:Y *246:A1 4.685 
*END

*D_NET *13 0.00785949
*CONN
*I *236:A I *D sky130_fd_sc_hd__and3_1
*I *239:A I *D sky130_fd_sc_hd__and3_1
*I *240:B I *D sky130_fd_sc_hd__and3_1
*I *244:A I *D sky130_fd_sc_hd__and2_1
*I *246:B1 I *D sky130_fd_sc_hd__a211oi_1
*I *231:X O *D sky130_fd_sc_hd__and2b_1
*CAP
1 *236:A 0.000513861
2 *239:A 0.000148464
3 *240:B 0.000135409
4 *244:A 1.88809e-05
5 *246:B1 0.000168829
6 *231:X 0
7 *13:63 0.00102087
8 *13:40 0.00128585
9 *13:14 0.000650839
10 *13:4 0.00125502
11 *236:A *236:C 0.000157571
12 *236:A *237:A1 3.27566e-05
13 *236:A *237:A2 0.000149765
14 *236:A *237:B1 5.93475e-05
15 *236:A *24:55 4.32852e-05
16 *236:A *35:6 3.78832e-05
17 *236:A *35:15 8.27722e-05
18 *236:A *36:23 1.22505e-05
19 *236:A *36:32 6.13769e-05
20 *239:A *239:C 0.000144436
21 *239:A *18:10 3.67779e-05
22 *239:A *24:55 1.10631e-05
23 *239:A *36:23 0.000188033
24 *240:B *233:A 9.14049e-05
25 *240:B *233:B 0
26 *240:B *251:CLK 0
27 *244:A *19:16 5.4155e-06
28 *246:B1 *243:A2 0.000188189
29 *13:14 *243:A2 4.60584e-05
30 *13:14 *246:A2 0
31 *13:14 *248:D 4.77774e-05
32 *13:14 *252:CLK 8.89201e-05
33 *13:14 *19:16 0.000123313
34 *13:14 *25:10 0
35 *13:40 *231:A_N 0.000124895
36 *13:40 *233:A 0.000353234
37 *13:40 *249:CLK 0
38 *13:40 *251:CLK 0
39 *13:40 *252:CLK 0.000154682
40 *13:63 *254:A 3.03114e-05
41 *13:63 *255:A 0.000282386
42 *13:63 *18:10 2.75229e-05
43 *13:63 *24:55 1.03755e-05
44 *250:D *236:A 6.96579e-05
45 *252:D *13:40 0
*RES
1 *231:X *13:4 1.6 
2 *13:4 *13:14 10.585 
3 *13:14 *246:B1 8.555 
4 *13:14 *244:A 1.96 
5 *13:4 *13:40 13.19 
6 *13:40 *240:B 5.745 
7 *13:40 *13:63 10.6825 
8 *13:63 *239:A 7.9125 
9 *13:63 *236:A 12.5625 
*END

*D_NET *14 0.00226942
*CONN
*I *233:B I *D sky130_fd_sc_hd__nor2_1
*I *243:A1 I *D sky130_fd_sc_hd__o21ai_1
*I *232:Y O *D sky130_fd_sc_hd__nand2b_1
*CAP
1 *233:B 0.000173144
2 *243:A1 0.000734927
3 *232:Y 0
4 *14:4 0.000908071
5 *233:B *232:B 0.00016676
6 *233:B *251:CLK 0
7 *233:B *33:23 7.63883e-05
8 *243:A1 *232:A_N 1.61831e-05
9 *243:A1 *232:B 7.00889e-06
10 *243:A1 *243:B1 0.000162738
11 *243:A1 *247:D 1.33293e-05
12 clr_me *243:A1 1.08758e-05
13 *240:B *233:B 0
*RES
1 *232:Y *14:4 1.6 
2 *14:4 *243:A1 11.845 
3 *14:4 *233:B 8.96 
*END

*D_NET *15 0.00217862
*CONN
*I *236:B I *D sky130_fd_sc_hd__and3_1
*I *234:X O *D sky130_fd_sc_hd__or2_1
*CAP
1 *236:B 0.000483079
2 *234:X 0.000483079
3 *236:B *234:B 0.000308719
4 *236:B *239:B 0.000696707
5 *236:B *36:12 8.95933e-05
6 *250:D *236:B 0
7 *253:A *236:B 0.000117445
*RES
1 *234:X *236:B 19.41 
*END

*D_NET *16 0.00111866
*CONN
*I *236:C I *D sky130_fd_sc_hd__and3_1
*I *235:Y O *D sky130_fd_sc_hd__nand2_1
*CAP
1 *236:C 0.000300586
2 *235:Y 0.000300586
3 *236:C *237:B1 0.000198939
4 *236:C *241:A_N 3.86607e-05
5 *236:C *241:B 4.82863e-05
6 *236:C *35:49 7.4027e-05
7 *236:A *236:C 0.000157571
*RES
1 *235:Y *236:C 11.8725 
*END

*D_NET *17 0.00198911
*CONN
*I *239:B I *D sky130_fd_sc_hd__and3_1
*I *237:X O *D sky130_fd_sc_hd__a21o_1
*CAP
1 *239:B 0.00063723
2 *237:X 0.00063723
3 *239:B *234:B 0
4 *239:B *27:41 1.79483e-05
5 *239:B *36:12 0
6 *239:B *37:10 0
7 *239:B *37:21 0
8 *236:B *239:B 0.000696707
*RES
1 *237:X *239:B 17.085 
*END

*D_NET *18 0.00218716
*CONN
*I *240:C I *D sky130_fd_sc_hd__and3_1
*I *239:C I *D sky130_fd_sc_hd__and3_1
*I *238:Y O *D sky130_fd_sc_hd__nand3_1
*CAP
1 *240:C 0.000383133
2 *239:C 0.000130396
3 *238:Y 0.0001513
4 *18:10 0.000664829
5 *239:C *234:A 1.70906e-05
6 *239:C *24:36 5.23362e-05
7 *239:C *24:55 7.5416e-05
8 *240:C *233:A 5.28255e-05
9 *240:C *240:A 0.000201503
10 *240:C *251:CLK 1.60203e-05
11 *240:C *24:26 1.56428e-05
12 *240:C *24:36 2.19562e-06
13 *18:10 *255:A 7.67415e-06
14 *18:10 *24:55 6.38291e-05
15 *239:A *239:C 0.000144436
16 *239:A *18:10 3.67779e-05
17 *251:D *239:C 3.42142e-05
18 *251:D *240:C 7.81829e-05
19 *253:A *18:10 3.1835e-05
20 *13:63 *18:10 2.75229e-05
*RES
1 *238:Y *18:10 5.955 
2 *18:10 *239:C 6.93 
3 *18:10 *240:C 8.595 
*END

*D_NET *19 0.004525
*CONN
*I *244:B I *D sky130_fd_sc_hd__and2_1
*I *243:A2 I *D sky130_fd_sc_hd__o21ai_1
*I *241:X O *D sky130_fd_sc_hd__and4b_1
*CAP
1 *244:B 0
2 *243:A2 0.000305664
3 *241:X 0.00107266
4 *19:16 0.00137833
5 *243:A2 *242:C_N 0.000163204
6 *243:A2 *246:A2 0.00011398
7 *243:A2 *247:D 0
8 *243:A2 *248:CLK 0
9 *243:A2 *248:D 0
10 *243:A2 *261:A 0.000114384
11 *19:16 *242:A 0.000233561
12 *19:16 *242:B 4.66108e-05
13 *19:16 *242:C_N 0.000110482
14 *19:16 *249:RESET_B 8.07616e-05
15 *19:16 *33:36 0.000389803
16 *19:16 *35:6 1.7386e-05
17 *244:A *19:16 5.4155e-06
18 *246:B1 *243:A2 0.000188189
19 *249:D *19:16 0.000135202
20 *13:14 *243:A2 4.60584e-05
21 *13:14 *19:16 0.000123313
*RES
1 *241:X *19:16 19.12 
2 *19:16 *243:A2 13.49 
3 *19:16 *244:B 1.6 
*END

*D_NET *20 0.00168261
*CONN
*I *243:B1 I *D sky130_fd_sc_hd__o21ai_1
*I *242:X O *D sky130_fd_sc_hd__or3b_1
*CAP
1 *243:B1 0.000590695
2 *242:X 0.000590695
3 *243:B1 *230:A 0.000139245
4 *243:B1 *247:D 0.00012657
5 *243:B1 *22:16 7.26629e-05
6 *243:A1 *243:B1 0.000162738
*RES
1 *242:X *243:B1 17.565 
*END

*D_NET *21 0.00293803
*CONN
*I *255:A I *D sky130_fd_sc_hd__clkbuf_16
*I *254:A I *D sky130_fd_sc_hd__clkbuf_16
*I *253:X O *D sky130_fd_sc_hd__clkbuf_16
*CAP
1 *255:A 0.000195076
2 *254:A 0.000252495
3 *253:X 0
4 *21:4 0.000447571
5 *254:A *246:C1 0.000232111
6 *254:A *23:8 0.000142377
7 *254:A *27:41 3.74161e-05
8 *255:A *23:8 0.00091557
9 *253:A *255:A 0.000395045
10 *13:63 *254:A 3.03114e-05
11 *13:63 *255:A 0.000282386
12 *18:10 *255:A 7.67415e-06
*RES
1 *253:X *21:4 1.6 
2 *21:4 *254:A 6.91 
3 *21:4 *255:A 10.6 
*END

*D_NET *22 0.00287989
*CONN
*I *252:CLK I *D sky130_fd_sc_hd__dfrtp_1
*I *247:CLK I *D sky130_fd_sc_hd__dfrtp_1
*I *248:CLK I *D sky130_fd_sc_hd__dfrtp_1
*I *254:X O *D sky130_fd_sc_hd__clkbuf_16
*CAP
1 *252:CLK 0.000365224
2 *247:CLK 0
3 *248:CLK 9.96454e-05
4 *254:X 3.63268e-05
5 *22:16 0.000384209
6 *22:8 0.000686114
7 *248:CLK *247:D 0.000164629
8 *248:CLK *248:D 0.00015931
9 *248:CLK *261:A 0
10 *252:CLK *230:A 9.37731e-05
11 *252:CLK *231:A_N 0.000124895
12 *252:CLK *231:B 0.000286421
13 *22:8 *246:C1 2.68464e-05
14 *22:16 *230:A 7.30547e-05
15 *22:16 *247:D 6.31732e-05
16 *243:A2 *248:CLK 0
17 *243:B1 *22:16 7.26629e-05
18 *13:14 *252:CLK 8.89201e-05
19 *13:40 *252:CLK 0.000154682
*RES
1 *254:X *22:8 4.05 
2 *22:8 *22:16 6.935 
3 *22:16 *248:CLK 8.195 
4 *22:16 *247:CLK 1.6 
5 *22:8 *252:CLK 11.955 
*END

*D_NET *23 0.00562506
*CONN
*I *250:CLK I *D sky130_fd_sc_hd__dfrtp_1
*I *249:CLK I *D sky130_fd_sc_hd__dfrtp_1
*I *251:CLK I *D sky130_fd_sc_hd__dfrtp_1
*I *255:X O *D sky130_fd_sc_hd__clkbuf_16
*CAP
1 *250:CLK 0.000197553
2 *249:CLK 6.69251e-05
3 *251:CLK 0.000196554
4 *255:X 0
5 *23:8 0.00140568
6 *23:4 0.00133975
7 *250:CLK *27:41 7.49327e-05
8 *251:CLK *233:A 0.000237249
9 *251:CLK *240:A 4.99619e-05
10 *251:CLK *24:36 0.000173689
11 *251:CLK *27:41 1.93834e-05
12 *251:CLK *33:23 0
13 *23:8 *246:C1 5.83121e-06
14 *23:8 *27:41 0.000525236
15 *233:B *251:CLK 0
16 *240:B *251:CLK 0
17 *240:C *251:CLK 1.60203e-05
18 *250:D *250:CLK 9.19672e-05
19 *252:D *249:CLK 5.92269e-05
20 *252:D *251:CLK 9.78798e-05
21 *253:A *23:8 9.27255e-06
22 *254:A *23:8 0.000142377
23 *255:A *23:8 0.00091557
24 *13:40 *249:CLK 0
25 *13:40 *251:CLK 0
*RES
1 *255:X *23:4 1.6 
2 *23:4 *23:8 17.63 
3 *23:8 *251:CLK 9.12 
4 *23:8 *249:CLK 4.98 
5 *23:4 *250:CLK 9.05 
*END

*D_NET *24 0.00908602
*CONN
*I *251:RESET_B I *D sky130_fd_sc_hd__dfrtp_1
*I *252:RESET_B I *D sky130_fd_sc_hd__dfrtp_1
*I *249:RESET_B I *D sky130_fd_sc_hd__dfrtp_1
*I *247:RESET_B I *D sky130_fd_sc_hd__dfrtp_1
*I *248:RESET_B I *D sky130_fd_sc_hd__dfrtp_1
*I *250:RESET_B I *D sky130_fd_sc_hd__dfrtp_1
*I *259:X O *D sky130_fd_sc_hd__clkbuf_2
*CAP
1 *251:RESET_B 1.77753e-05
2 *252:RESET_B 0.000228832
3 *249:RESET_B 3.09503e-05
4 *247:RESET_B 3.25158e-05
5 *248:RESET_B 0.000155685
6 *250:RESET_B 0.000145526
7 *259:X 0.00172918
8 *24:55 0.000501815
9 *24:36 0.000894618
10 *24:26 0.00107834
11 *24:22 0.000704804
12 *24:12 0.00243184
13 *247:RESET_B *233:A 0
14 *248:RESET_B *232:B 0
15 *248:RESET_B *34:19 0
16 *252:RESET_B *235:A 0
17 *252:RESET_B *240:A 0.0001249
18 *252:RESET_B *257:A 8.53113e-06
19 *252:RESET_B *38:6 0.000163199
20 *24:22 *37:10 2.11084e-05
21 *24:36 *233:A 4.85494e-05
22 *24:36 *240:A 3.59311e-05
23 *24:55 *235:A 0
24 *24:55 *240:A 0
25 *24:55 *36:32 0
26 *236:A *24:55 4.32852e-05
27 *239:A *24:55 1.10631e-05
28 *239:C *24:36 5.23362e-05
29 *239:C *24:55 7.5416e-05
30 *240:C *24:26 1.56428e-05
31 *240:C *24:36 2.19562e-06
32 *250:D *24:22 8.3303e-06
33 *251:CLK *24:36 0.000173689
34 *251:D *24:36 0.000194997
35 *13:63 *24:55 1.03755e-05
36 *18:10 *24:55 6.38291e-05
37 *19:16 *249:RESET_B 8.07616e-05
*RES
1 *259:X *24:12 29.93 
2 *24:12 *250:RESET_B 3.1575 
3 *24:12 *24:22 9.345 
4 *24:22 *24:26 3.83 
5 *24:26 *24:36 12.845 
6 *24:36 *248:RESET_B 6.34 
7 *24:36 *247:RESET_B 0.5625 
8 *24:26 *24:55 4.695 
9 *24:55 *249:RESET_B 2.7425 
10 *24:55 *252:RESET_B 6.4475 
11 *24:22 *251:RESET_B 0.3075 
*END

*D_NET *25 0.00250361
*CONN
*I *242:C_N I *D sky130_fd_sc_hd__or3b_1
*I *246:A2 I *D sky130_fd_sc_hd__a211oi_1
*I *260:X O *D sky130_fd_sc_hd__clkbuf_1
*CAP
1 *242:C_N 0.000146564
2 *246:A2 0.000131133
3 *260:X 0.000780273
4 *25:10 0.00105797
5 *246:A2 *248:D 0
6 *243:A2 *242:C_N 0.000163204
7 *243:A2 *246:A2 0.00011398
8 *13:14 *246:A2 0
9 *13:14 *25:10 0
10 *19:16 *242:C_N 0.000110482
*RES
1 *260:X *25:10 12.42 
2 *25:10 *246:A2 6.255 
3 *25:10 *242:C_N 6.585 
*END

*D_NET *26 0.000568471
*CONN
*I *261:A I *D sky130_fd_sc_hd__buf_2
*I *246:Y O *D sky130_fd_sc_hd__a211oi_1
*CAP
1 *261:A 0.000212024
2 *246:Y 0.000212024
3 clr_me *261:A 3.00381e-05
4 *243:A2 *261:A 0.000114384
5 *248:CLK *261:A 0
*RES
1 *246:Y *261:A 11.58 
*END

*D_NET *27 0.0108696
*CONN
*I *262:A I *D sky130_fd_sc_hd__buf_2
*I *246:C1 I *D sky130_fd_sc_hd__a211oi_1
*I *245:X O *D sky130_fd_sc_hd__and2b_1
*CAP
1 *262:A 0
2 *246:C1 0.00062915
3 *245:X 0
4 *27:41 0.00399054
5 *27:4 0.00461969
6 *246:C1 *230:A 0.000307328
7 *246:C1 *245:B 0.0001947
8 frame_done *27:41 1.17114e-05
9 *239:B *27:41 1.79483e-05
10 *246:A1 *246:C1 6.96579e-05
11 *250:CLK *27:41 7.49327e-05
12 *251:CLK *27:41 1.93834e-05
13 *253:A *27:41 0.000107112
14 *254:A *246:C1 0.000232111
15 *254:A *27:41 3.74161e-05
16 *22:8 *246:C1 2.68464e-05
17 *23:8 *246:C1 5.83121e-06
18 *23:8 *27:41 0.000525236
*RES
1 *245:X *27:4 1.6 
2 *27:4 *246:C1 13.435 
3 *27:4 *27:41 48.9543 
4 *27:41 *262:A 3.6 
*END

*D_NET *28 0.00134969
*CONN
*I *240:A I *D sky130_fd_sc_hd__and3_1
*I *256:X O *D sky130_fd_sc_hd__dlygate4sd3_1
*CAP
1 *240:A 0.000453677
2 *256:X 0.000453677
3 *240:A *233:A 0
4 *240:C *240:A 0.000201503
5 *251:CLK *240:A 4.99619e-05
6 *251:D *240:A 3.00381e-05
7 *252:RESET_B *240:A 0.0001249
8 *24:36 *240:A 3.59311e-05
9 *24:55 *240:A 0
*RES
1 *256:X *240:A 15.63 
*END

*D_NET *29 0.00211985
*CONN
*I *233:A I *D sky130_fd_sc_hd__nor2_1
*I *257:X O *D sky130_fd_sc_hd__dlygate4sd3_1
*CAP
1 *233:A 0.000567987
2 *257:X 0.000567987
3 *240:A *233:A 0
4 *240:B *233:A 9.14049e-05
5 *240:C *233:A 5.28255e-05
6 *247:RESET_B *233:A 0
7 *251:CLK *233:A 0.000237249
8 *252:D *233:A 0.000200615
9 *13:40 *233:A 0.000353234
10 *24:36 *233:A 4.85494e-05
*RES
1 *257:X *233:A 18.81 
*END

*D_NET *30 0.000437426
*CONN
*I *242:A I *D sky130_fd_sc_hd__or3b_1
*I *258:X O *D sky130_fd_sc_hd__dlygate4sd3_1
*CAP
1 *242:A 0.000101932
2 *258:X 0.000101932
3 *19:16 *242:A 0.000233561
*RES
1 *258:X *242:A 5.375 
*END

*D_NET *31 0.000921055
*CONN
*I *247:D I *D sky130_fd_sc_hd__dfrtp_1
*I *243:Y O *D sky130_fd_sc_hd__o21ai_1
*CAP
1 *247:D 0.000276677
2 *243:Y 0.000276677
3 *243:A1 *247:D 1.33293e-05
4 *243:A2 *247:D 0
5 *243:B1 *247:D 0.00012657
6 *248:CLK *247:D 0.000164629
7 *22:16 *247:D 6.31732e-05
*RES
1 *243:Y *247:D 11.895 
*END

*D_NET *32 0.00114552
*CONN
*I *248:D I *D sky130_fd_sc_hd__dfrtp_1
*I *244:X O *D sky130_fd_sc_hd__and2_1
*CAP
1 *248:D 0.000469215
2 *244:X 0.000469215
3 *243:A2 *248:D 0
4 *246:A2 *248:D 0
5 *248:CLK *248:D 0.00015931
6 *13:14 *248:D 4.77774e-05
*RES
1 *244:X *248:D 15.12 
*END

*D_NET *33 0.00422989
*CONN
*I *231:B I *D sky130_fd_sc_hd__and2b_1
*I *230:A I *D sky130_fd_sc_hd__inv_2
*I *242:B I *D sky130_fd_sc_hd__or3b_1
*I *245:A_N I *D sky130_fd_sc_hd__and2b_1
*I *232:B I *D sky130_fd_sc_hd__nand2b_1
*I *247:Q O *D sky130_fd_sc_hd__dfrtp_1
*CAP
1 *231:B 0.000225149
2 *230:A 0.000188386
3 *242:B 4.98089e-05
4 *245:A_N 0
5 *232:B 0.000102803
6 *247:Q 0
7 *33:47 0.000413535
8 *33:36 0.000356881
9 *33:23 0.000400945
10 *33:6 0.000196675
11 *232:B *232:A_N 9.65173e-05
12 *232:B *34:19 7.4027e-05
13 *33:23 *34:19 0.000186182
14 *33:36 *34:19 3.57768e-05
15 *33:36 *34:30 6.36656e-05
16 *233:B *232:B 0.00016676
17 *233:B *33:23 7.63883e-05
18 *243:A1 *232:B 7.00889e-06
19 *243:B1 *230:A 0.000139245
20 *246:C1 *230:A 0.000307328
21 *248:RESET_B *232:B 0
22 *249:D *33:23 7.24682e-05
23 *249:D *33:36 0.000180682
24 *251:CLK *33:23 0
25 *252:CLK *230:A 9.37731e-05
26 *252:CLK *231:B 0.000286421
27 *19:16 *242:B 4.66108e-05
28 *19:16 *33:36 0.000389803
29 *22:16 *230:A 7.30547e-05
*RES
1 *247:Q *33:6 3.6 
2 *33:6 *232:B 6.1425 
3 *33:6 *33:23 2.955 
4 *33:23 *245:A_N 3.6 
5 *33:23 *33:36 8.735 
6 *33:36 *242:B 2.41 
7 *33:36 *33:47 2 
8 *33:47 *230:A 8.355 
9 *33:47 *231:B 7.995 
*END

*D_NET *34 0.00225752
*CONN
*I *231:A_N I *D sky130_fd_sc_hd__and2b_1
*I *258:A I *D sky130_fd_sc_hd__dlygate4sd3_1
*I *245:B I *D sky130_fd_sc_hd__and2b_1
*I *232:A_N I *D sky130_fd_sc_hd__nand2b_1
*I *248:Q O *D sky130_fd_sc_hd__dfrtp_1
*CAP
1 *231:A_N 0.000144251
2 *258:A 0
3 *245:B 0.000107208
4 *232:A_N 0.000155264
5 *248:Q 0
6 *34:30 0.000224605
7 *34:19 0.000370823
8 *34:4 0.000338525
9 *232:B *232:A_N 9.65173e-05
10 *232:B *34:19 7.4027e-05
11 *243:A1 *232:A_N 1.61831e-05
12 *246:C1 *245:B 0.0001947
13 *248:RESET_B *34:19 0
14 *252:CLK *231:A_N 0.000124895
15 *252:D *231:A_N 0
16 *252:D *34:30 0
17 *13:40 *231:A_N 0.000124895
18 *33:23 *34:19 0.000186182
19 *33:36 *34:19 3.57768e-05
20 *33:36 *34:30 6.36656e-05
*RES
1 *248:Q *34:4 1.6 
2 *34:4 *232:A_N 4.405 
3 *34:4 *34:19 5.93 
4 *34:19 *245:B 5.43 
5 *34:19 *34:30 1.635 
6 *34:30 *258:A 3.6 
7 *34:30 *231:A_N 6.63 
*END

*D_NET *35 0.00428642
*CONN
*I *237:A2 I *D sky130_fd_sc_hd__a21o_1
*I *235:B I *D sky130_fd_sc_hd__nand2_1
*I *257:A I *D sky130_fd_sc_hd__dlygate4sd3_1
*I *238:B I *D sky130_fd_sc_hd__nand3_1
*I *234:B I *D sky130_fd_sc_hd__or2_1
*I *241:D I *D sky130_fd_sc_hd__and4b_1
*I *249:Q O *D sky130_fd_sc_hd__dfrtp_1
*CAP
1 *237:A2 7.15116e-05
2 *235:B 0
3 *257:A 0.000298982
4 *238:B 0
5 *234:B 0.000301235
6 *241:D 2.08101e-05
7 *249:Q 5.76313e-05
8 *35:49 0.000418825
9 *35:19 0.000372464
10 *35:17 0.000191073
11 *35:15 0.000102533
12 *35:6 0.000109463
13 *234:B *234:A 0.000349592
14 *234:B *36:12 4.82919e-05
15 *234:B *36:23 0.000335163
16 *234:B *36:32 9.50342e-06
17 *234:B *37:10 6.74079e-05
18 *237:A2 *237:A1 0.000158965
19 *237:A2 *241:A_N 9.50342e-06
20 *237:A2 *37:21 2.23485e-05
21 *241:D *237:A1 0
22 *257:A *241:A_N 7.49327e-05
23 *257:A *38:6 8.65961e-05
24 *35:15 *237:A1 4.66108e-05
25 *35:19 *36:32 0.000142981
26 *35:19 *37:10 5.53249e-06
27 *35:19 *37:21 7.21566e-05
28 *35:49 *235:A 0.000153264
29 *35:49 *241:A_N 1.9803e-05
30 *35:49 *36:32 2.07184e-05
31 *35:49 *37:21 3.9442e-05
32 *236:A *237:A2 0.000149765
33 *236:A *35:6 3.78832e-05
34 *236:A *35:15 8.27722e-05
35 *236:B *234:B 0.000308719
36 *236:C *35:49 7.4027e-05
37 *239:B *234:B 0
38 *252:RESET_B *257:A 8.53113e-06
39 *19:16 *35:6 1.7386e-05
*RES
1 *249:Q *35:6 2.64625 
2 *35:6 *241:D 1.96 
3 *35:6 *35:15 0.88875 
4 *35:15 *35:17 2 
5 *35:17 *35:19 1.89 
6 *35:19 *234:B 12.135 
7 *35:19 *238:B 3.6 
8 *35:17 *35:49 5.06 
9 *35:49 *257:A 10.715 
10 *35:49 *235:B 1.6 
11 *35:15 *237:A2 7.7 
*END

*D_NET *36 0.00342959
*CONN
*I *235:A I *D sky130_fd_sc_hd__nand2_1
*I *237:A1 I *D sky130_fd_sc_hd__a21o_1
*I *241:C I *D sky130_fd_sc_hd__and4b_1
*I *238:A I *D sky130_fd_sc_hd__nand3_1
*I *234:A I *D sky130_fd_sc_hd__or2_1
*I *250:Q O *D sky130_fd_sc_hd__dfrtp_1
*CAP
1 *235:A 0.000175236
2 *237:A1 8.32561e-05
3 *241:C 0
4 *238:A 0
5 *234:A 0.000136262
6 *250:Q 0.00018893
7 *36:34 8.32561e-05
8 *36:32 0.000258887
9 *36:23 0.000214367
10 *36:12 0.000455908
11 *235:A *241:A_N 4.99619e-05
12 *237:A1 *237:B1 6.93045e-05
13 *237:A1 *241:B 4.80285e-05
14 *234:B *234:A 0.000349592
15 *234:B *36:12 4.82919e-05
16 *234:B *36:23 0.000335163
17 *234:B *36:32 9.50342e-06
18 *236:A *237:A1 3.27566e-05
19 *236:A *36:23 1.22505e-05
20 *236:A *36:32 6.13769e-05
21 *236:B *36:12 8.95933e-05
22 *237:A2 *237:A1 0.000158965
23 *239:A *36:23 0.000188033
24 *239:B *36:12 0
25 *239:C *234:A 1.70906e-05
26 *241:D *237:A1 0
27 *252:RESET_B *235:A 0
28 *24:55 *235:A 0
29 *24:55 *36:32 0
30 *35:15 *237:A1 4.66108e-05
31 *35:19 *36:32 0.000142981
32 *35:49 *235:A 0.000153264
33 *35:49 *36:32 2.07184e-05
*RES
1 *250:Q *36:12 9.065 
2 *36:12 *234:A 4.81 
3 *36:12 *36:23 6.185 
4 *36:23 *238:A 3.6 
5 *36:23 *36:32 2.145 
6 *36:32 *36:34 2 
7 *36:34 *241:C 1.6 
8 *36:34 *237:A1 4.135 
9 *36:32 *235:A 6.645 
*END

*D_NET *37 0.00132061
*CONN
*I *237:B1 I *D sky130_fd_sc_hd__a21o_1
*I *241:B I *D sky130_fd_sc_hd__and4b_1
*I *238:C I *D sky130_fd_sc_hd__nand3_1
*I *251:Q O *D sky130_fd_sc_hd__dfrtp_1
*CAP
1 *237:B1 5.17806e-05
2 *241:B 3.3854e-05
3 *238:C 0
4 *251:Q 9.74956e-05
5 *37:21 0.000221401
6 *37:10 0.000233262
7 *37:21 *241:A_N 3.09164e-05
8 *234:B *37:10 6.74079e-05
9 *236:A *237:B1 5.93475e-05
10 *236:C *237:B1 0.000198939
11 *236:C *241:B 4.82863e-05
12 *237:A1 *237:B1 6.93045e-05
13 *237:A1 *241:B 4.80285e-05
14 *237:A2 *37:21 2.23485e-05
15 *239:B *37:10 0
16 *239:B *37:21 0
17 *24:22 *37:10 2.11084e-05
18 *35:19 *37:10 5.53249e-06
19 *35:19 *37:21 7.21566e-05
20 *35:49 *37:21 3.9442e-05
*RES
1 *251:Q *37:10 5.43 
2 *37:10 *238:C 3.6 
3 *37:10 *37:21 4.655 
4 *37:21 *241:B 2.395 
5 *37:21 *237:B1 3.79 
*END

*D_NET *38 0.00117269
*CONN
*I *241:A_N I *D sky130_fd_sc_hd__and4b_1
*I *256:A I *D sky130_fd_sc_hd__dlygate4sd3_1
*I *252:Q O *D sky130_fd_sc_hd__dfrtp_1
*CAP
1 *241:A_N 0.000232371
2 *256:A 0
3 *252:Q 0.000117187
4 *38:6 0.000349558
5 *235:A *241:A_N 4.99619e-05
6 *236:C *241:A_N 3.86607e-05
7 *237:A2 *241:A_N 9.50342e-06
8 *252:RESET_B *38:6 0.000163199
9 *257:A *241:A_N 7.49327e-05
10 *257:A *38:6 8.65961e-05
11 *35:49 *241:A_N 1.9803e-05
12 *37:21 *241:A_N 3.09164e-05
*RES
1 *252:Q *38:6 4.12 
2 *38:6 *256:A 1.6 
3 *38:6 *241:A_N 9.92 
*END
