* NGSPICE file created from Path_Metric_Unit.ext - technology: sky130A

* Black-box entry subcircuit for sky130_ef_sc_hd__decap_12 abstract view
.subckt sky130_ef_sc_hd__decap_12 VPWR VGND VPB VNB
.ends

* Black-box entry subcircuit for sky130_fd_sc_hd__decap_6 abstract view
.subckt sky130_fd_sc_hd__decap_6 VGND VNB VPB VPWR
.ends

* Black-box entry subcircuit for sky130_fd_sc_hd__tapvpwrvgnd_1 abstract view
.subckt sky130_fd_sc_hd__tapvpwrvgnd_1 VGND VPWR
.ends

* Black-box entry subcircuit for sky130_fd_sc_hd__dfrtp_4 abstract view
.subckt sky130_fd_sc_hd__dfrtp_4 CLK D RESET_B VGND VNB VPB VPWR Q
.ends

* Black-box entry subcircuit for sky130_fd_sc_hd__o211a_1 abstract view
.subckt sky130_fd_sc_hd__o211a_1 A1 A2 B1 C1 VGND VNB VPB VPWR X
.ends

* Black-box entry subcircuit for sky130_fd_sc_hd__a31oi_4 abstract view
.subckt sky130_fd_sc_hd__a31oi_4 A1 A2 A3 B1 VGND VNB VPB VPWR Y
.ends

* Black-box entry subcircuit for sky130_fd_sc_hd__decap_3 abstract view
.subckt sky130_fd_sc_hd__decap_3 VGND VNB VPB VPWR
.ends

* Black-box entry subcircuit for sky130_fd_sc_hd__decap_8 abstract view
.subckt sky130_fd_sc_hd__decap_8 VGND VNB VPB VPWR
.ends

* Black-box entry subcircuit for sky130_fd_sc_hd__fill_1 abstract view
.subckt sky130_fd_sc_hd__fill_1 VGND VNB VPB VPWR
.ends

* Black-box entry subcircuit for sky130_fd_sc_hd__buf_2 abstract view
.subckt sky130_fd_sc_hd__buf_2 A VGND VNB VPB VPWR X
.ends

* Black-box entry subcircuit for sky130_fd_sc_hd__dfrtp_2 abstract view
.subckt sky130_fd_sc_hd__dfrtp_2 CLK D RESET_B VGND VNB VPB VPWR Q
.ends

* Black-box entry subcircuit for sky130_fd_sc_hd__a311o_1 abstract view
.subckt sky130_fd_sc_hd__a311o_1 A1 A2 A3 B1 C1 VGND VNB VPB VPWR X
.ends

* Black-box entry subcircuit for sky130_fd_sc_hd__inv_2 abstract view
.subckt sky130_fd_sc_hd__inv_2 A VGND VNB VPB VPWR Y
.ends

* Black-box entry subcircuit for sky130_fd_sc_hd__fill_2 abstract view
.subckt sky130_fd_sc_hd__fill_2 VGND VNB VPB VPWR
.ends

* Black-box entry subcircuit for sky130_fd_sc_hd__xnor2_2 abstract view
.subckt sky130_fd_sc_hd__xnor2_2 A B VGND VNB VPB VPWR Y
.ends

* Black-box entry subcircuit for sky130_fd_sc_hd__decap_4 abstract view
.subckt sky130_fd_sc_hd__decap_4 VGND VNB VPB VPWR
.ends

* Black-box entry subcircuit for sky130_fd_sc_hd__dfrtp_1 abstract view
.subckt sky130_fd_sc_hd__dfrtp_1 CLK D RESET_B VGND VNB VPB VPWR Q
.ends

* Black-box entry subcircuit for sky130_fd_sc_hd__o221ai_4 abstract view
.subckt sky130_fd_sc_hd__o221ai_4 A1 A2 B1 B2 C1 VGND VNB VPB VPWR Y
.ends

* Black-box entry subcircuit for sky130_fd_sc_hd__xor2_2 abstract view
.subckt sky130_fd_sc_hd__xor2_2 A B VGND VNB VPB VPWR X
.ends

* Black-box entry subcircuit for sky130_fd_sc_hd__a21bo_1 abstract view
.subckt sky130_fd_sc_hd__a21bo_1 A1 A2 B1_N VGND VNB VPB VPWR X
.ends

* Black-box entry subcircuit for sky130_fd_sc_hd__nor4_1 abstract view
.subckt sky130_fd_sc_hd__nor4_1 A B C D VGND VNB VPB VPWR Y
.ends

* Black-box entry subcircuit for sky130_fd_sc_hd__clkbuf_8 abstract view
.subckt sky130_fd_sc_hd__clkbuf_8 A VGND VNB VPB VPWR X
.ends

* Black-box entry subcircuit for sky130_fd_sc_hd__nand2_1 abstract view
.subckt sky130_fd_sc_hd__nand2_1 A B VGND VNB VPB VPWR Y
.ends

* Black-box entry subcircuit for sky130_fd_sc_hd__xnor2_1 abstract view
.subckt sky130_fd_sc_hd__xnor2_1 A B VGND VNB VPB VPWR Y
.ends

* Black-box entry subcircuit for sky130_fd_sc_hd__o22ai_4 abstract view
.subckt sky130_fd_sc_hd__o22ai_4 A1 A2 B1 B2 VGND VNB VPB VPWR Y
.ends

* Black-box entry subcircuit for sky130_fd_sc_hd__and2_1 abstract view
.subckt sky130_fd_sc_hd__and2_1 A B VGND VNB VPB VPWR X
.ends

* Black-box entry subcircuit for sky130_fd_sc_hd__or3b_2 abstract view
.subckt sky130_fd_sc_hd__or3b_2 A B C_N VGND VNB VPB VPWR X
.ends

* Black-box entry subcircuit for sky130_fd_sc_hd__nor2_1 abstract view
.subckt sky130_fd_sc_hd__nor2_1 A B VGND VNB VPB VPWR Y
.ends

* Black-box entry subcircuit for sky130_fd_sc_hd__a21oi_2 abstract view
.subckt sky130_fd_sc_hd__a21oi_2 A1 A2 B1 VGND VNB VPB VPWR Y
.ends

* Black-box entry subcircuit for sky130_fd_sc_hd__xor2_1 abstract view
.subckt sky130_fd_sc_hd__xor2_1 A B VGND VNB VPB VPWR X
.ends

* Black-box entry subcircuit for sky130_fd_sc_hd__clkbuf_16 abstract view
.subckt sky130_fd_sc_hd__clkbuf_16 A VGND VNB VPB VPWR X
.ends

* Black-box entry subcircuit for sky130_fd_sc_hd__or2_1 abstract view
.subckt sky130_fd_sc_hd__or2_1 A B VGND VNB VPB VPWR X
.ends

* Black-box entry subcircuit for sky130_fd_sc_hd__and3_1 abstract view
.subckt sky130_fd_sc_hd__and3_1 A B C VGND VNB VPB VPWR X
.ends

* Black-box entry subcircuit for sky130_fd_sc_hd__o21ai_2 abstract view
.subckt sky130_fd_sc_hd__o21ai_2 A1 A2 B1 VGND VNB VPB VPWR Y
.ends

* Black-box entry subcircuit for sky130_fd_sc_hd__a21o_1 abstract view
.subckt sky130_fd_sc_hd__a21o_1 A1 A2 B1 VGND VNB VPB VPWR X
.ends

* Black-box entry subcircuit for sky130_fd_sc_hd__clkbuf_2 abstract view
.subckt sky130_fd_sc_hd__clkbuf_2 A VGND VNB VPB VPWR X
.ends

* Black-box entry subcircuit for sky130_fd_sc_hd__o22a_2 abstract view
.subckt sky130_fd_sc_hd__o22a_2 A1 A2 B1 B2 VGND VNB VPB VPWR X
.ends

* Black-box entry subcircuit for sky130_fd_sc_hd__buf_1 abstract view
.subckt sky130_fd_sc_hd__buf_1 A VGND VNB VPB VPWR X
.ends

* Black-box entry subcircuit for sky130_fd_sc_hd__clkbuf_4 abstract view
.subckt sky130_fd_sc_hd__clkbuf_4 A VGND VNB VPB VPWR X
.ends

* Black-box entry subcircuit for sky130_fd_sc_hd__nand2_2 abstract view
.subckt sky130_fd_sc_hd__nand2_2 A B VGND VNB VPB VPWR Y
.ends

* Black-box entry subcircuit for sky130_fd_sc_hd__clkbuf_1 abstract view
.subckt sky130_fd_sc_hd__clkbuf_1 A VGND VNB VPB VPWR X
.ends

* Black-box entry subcircuit for sky130_fd_sc_hd__or4_2 abstract view
.subckt sky130_fd_sc_hd__or4_2 A B C D VGND VNB VPB VPWR X
.ends

* Black-box entry subcircuit for sky130_fd_sc_hd__a21boi_1 abstract view
.subckt sky130_fd_sc_hd__a21boi_1 A1 A2 B1_N VGND VNB VPB VPWR Y
.ends

* Black-box entry subcircuit for sky130_fd_sc_hd__and3b_1 abstract view
.subckt sky130_fd_sc_hd__and3b_1 A_N B C VGND VNB VPB VPWR X
.ends

* Black-box entry subcircuit for sky130_fd_sc_hd__o21ai_1 abstract view
.subckt sky130_fd_sc_hd__o21ai_1 A1 A2 B1 VGND VNB VPB VPWR Y
.ends

* Black-box entry subcircuit for sky130_fd_sc_hd__and2b_1 abstract view
.subckt sky130_fd_sc_hd__and2b_1 A_N B VGND VNB VPB VPWR X
.ends

* Black-box entry subcircuit for sky130_fd_sc_hd__a21boi_2 abstract view
.subckt sky130_fd_sc_hd__a21boi_2 A1 A2 B1_N VGND VNB VPB VPWR Y
.ends

* Black-box entry subcircuit for sky130_fd_sc_hd__a31o_1 abstract view
.subckt sky130_fd_sc_hd__a31o_1 A1 A2 A3 B1 VGND VNB VPB VPWR X
.ends

* Black-box entry subcircuit for sky130_fd_sc_hd__or2_2 abstract view
.subckt sky130_fd_sc_hd__or2_2 A B VGND VNB VPB VPWR X
.ends

* Black-box entry subcircuit for sky130_fd_sc_hd__a22o_1 abstract view
.subckt sky130_fd_sc_hd__a22o_1 A1 A2 B1 B2 VGND VNB VPB VPWR X
.ends

* Black-box entry subcircuit for sky130_fd_sc_hd__a21oi_1 abstract view
.subckt sky130_fd_sc_hd__a21oi_1 A1 A2 B1 VGND VNB VPB VPWR Y
.ends

.subckt Path_Metric_Unit VGND VPWR bm_00_00[0] bm_00_00[1] bm_00_10[0] bm_00_10[1]
+ bm_01_00[0] bm_01_00[1] bm_01_10[0] bm_01_10[1] bm_10_01[0] bm_10_01[1] bm_10_11[0]
+ bm_10_11[1] bm_11_01[0] bm_11_01[1] bm_11_11[0] bm_11_11[1] clk clr_me current_metric_00[0]
+ current_metric_00[1] current_metric_00[2] current_metric_00[3] current_metric_01[0]
+ current_metric_01[1] current_metric_01[2] current_metric_01[3] current_metric_10[0]
+ current_metric_10[1] current_metric_10[2] current_metric_10[3] current_metric_11[0]
+ current_metric_11[1] current_metric_11[2] current_metric_11[3] rst_n servivor_select_00
+ servivor_select_01 servivor_select_10 servivor_select_11
XFILLER_22_177 VPWR VGND VPWR VGND sky130_ef_sc_hd__decap_12
XFILLER_22_133 VGND VGND VPWR VPWR sky130_fd_sc_hd__decap_6
XFILLER_26_85 VPWR VGND VPWR VGND sky130_ef_sc_hd__decap_12
XFILLER_26_41 VPWR VGND VPWR VGND sky130_ef_sc_hd__decap_12
XTAP_TAPCELL_ROW_15_106 VGND VPWR sky130_fd_sc_hd__tapvpwrvgnd_1
X_294_ clknet_1_0__leaf_clk _010_ net44 VGND VGND VPWR VPWR net29 sky130_fd_sc_hd__dfrtp_4
XFILLER_9_137 VPWR VGND VPWR VGND sky130_ef_sc_hd__decap_12
XTAP_TAPCELL_ROW_20_120 VGND VPWR sky130_fd_sc_hd__tapvpwrvgnd_1
XFILLER_6_118 VPWR VGND VPWR VGND sky130_ef_sc_hd__decap_12
X_277_ _025_ net37 _092_ net42 VGND VGND VPWR VPWR _009_ sky130_fd_sc_hd__o211a_1
X_200_ _140_ _019_ _027_ net40 VGND VGND VPWR VPWR net37 sky130_fd_sc_hd__a31oi_4
XFILLER_2_165 VPWR VGND VPWR VGND sky130_ef_sc_hd__decap_12
XPHY_EDGE_ROW_8_Left_36 VGND VGND VPWR VPWR sky130_fd_sc_hd__decap_3
XFILLER_18_97 VPWR VGND VPWR VGND sky130_ef_sc_hd__decap_12
XFILLER_18_20 VGND VGND VPWR VPWR sky130_fd_sc_hd__decap_8
XFILLER_15_6 VGND VGND VPWR VPWR sky130_fd_sc_hd__decap_3
XFILLER_20_10 VGND VGND VPWR VPWR sky130_fd_sc_hd__fill_1
XFILLER_26_109 VPWR VGND VPWR VGND sky130_ef_sc_hd__decap_12
XFILLER_19_161 VGND VGND VPWR VPWR sky130_fd_sc_hd__decap_6
XTAP_TAPCELL_ROW_18_115 VGND VPWR sky130_fd_sc_hd__tapvpwrvgnd_1
XFILLER_16_153 VPWR VGND VPWR VGND sky130_ef_sc_hd__decap_12
Xoutput31 net31 VGND VGND VPWR VPWR current_metric_11[0] sky130_fd_sc_hd__buf_2
Xoutput20 net20 VGND VGND VPWR VPWR current_metric_00[1] sky130_fd_sc_hd__buf_2
XFILLER_22_189 VGND VGND VPWR VPWR sky130_fd_sc_hd__fill_1
XFILLER_26_97 VPWR VGND VPWR VGND sky130_ef_sc_hd__decap_12
XFILLER_26_53 VPWR VGND VPWR VGND sky130_ef_sc_hd__decap_12
XPHY_EDGE_ROW_21_Left_49 VGND VGND VPWR VPWR sky130_fd_sc_hd__decap_3
XFILLER_13_189 VGND VGND VPWR VPWR sky130_fd_sc_hd__fill_1
XFILLER_13_167 VGND VGND VPWR VPWR sky130_fd_sc_hd__fill_1
XFILLER_3_57 VGND VGND VPWR VPWR sky130_fd_sc_hd__decap_3
X_293_ clknet_1_0__leaf_clk _009_ net44 VGND VGND VPWR VPWR net28 sky130_fd_sc_hd__dfrtp_2
XFILLER_9_149 VPWR VGND VPWR VGND sky130_ef_sc_hd__decap_12
XTAP_TAPCELL_ROW_20_121 VGND VPWR sky130_fd_sc_hd__tapvpwrvgnd_1
XFILLER_12_44 VGND VGND VPWR VPWR sky130_fd_sc_hd__fill_1
XFILLER_12_77 VGND VGND VPWR VPWR sky130_fd_sc_hd__decap_6
X_276_ _140_ _019_ _027_ _021_ _141_ VGND VGND VPWR VPWR _092_ sky130_fd_sc_hd__a311o_1
XFILLER_23_32 VGND VGND VPWR VPWR sky130_fd_sc_hd__decap_8
XPHY_EDGE_ROW_21_Right_21 VGND VGND VPWR VPWR sky130_fd_sc_hd__decap_3
XPHY_EDGE_ROW_12_Right_12 VGND VGND VPWR VPWR sky130_fd_sc_hd__decap_3
X_259_ _084_ VGND VGND VPWR VPWR net35 sky130_fd_sc_hd__inv_2
XFILLER_2_177 VPWR VGND VPWR VGND sky130_ef_sc_hd__decap_12
XPHY_EDGE_ROW_24_Left_52 VGND VGND VPWR VPWR sky130_fd_sc_hd__decap_3
XFILLER_6_13 VGND VGND VPWR VPWR sky130_fd_sc_hd__fill_2
XFILLER_6_57 VGND VGND VPWR VPWR sky130_fd_sc_hd__decap_3
XPHY_EDGE_ROW_6_Right_6 VGND VGND VPWR VPWR sky130_fd_sc_hd__decap_3
XFILLER_16_165 VPWR VGND VPWR VGND sky130_ef_sc_hd__decap_12
XFILLER_16_121 VPWR VGND VPWR VGND sky130_ef_sc_hd__decap_12
Xoutput32 net32 VGND VGND VPWR VPWR current_metric_11[1] sky130_fd_sc_hd__buf_2
Xoutput21 net21 VGND VGND VPWR VPWR current_metric_00[2] sky130_fd_sc_hd__buf_2
XFILLER_26_65 VPWR VGND VPWR VGND sky130_ef_sc_hd__decap_12
XTAP_TAPCELL_ROW_23_130 VGND VPWR sky130_fd_sc_hd__tapvpwrvgnd_1
XFILLER_13_113 VPWR VGND VPWR VGND sky130_ef_sc_hd__decap_12
X_292_ clknet_1_1__leaf_clk _008_ net45 VGND VGND VPWR VPWR net27 sky130_fd_sc_hd__dfrtp_4
X_275_ _022_ net37 _091_ net42 VGND VGND VPWR VPWR _008_ sky130_fd_sc_hd__o211a_1
XFILLER_2_189 VGND VGND VPWR VPWR sky130_fd_sc_hd__fill_1
X_258_ _070_ _075_ _083_ net39 VGND VGND VPWR VPWR _084_ sky130_fd_sc_hd__a31oi_4
XFILLER_9_57 VGND VGND VPWR VPWR sky130_fd_sc_hd__fill_1
X_189_ net25 _136_ VGND VGND VPWR VPWR _017_ sky130_fd_sc_hd__xnor2_2
XFILLER_18_33 VGND VGND VPWR VPWR sky130_fd_sc_hd__fill_1
XFILLER_18_11 VGND VGND VPWR VPWR sky130_fd_sc_hd__decap_6
XFILLER_20_6 VGND VGND VPWR VPWR sky130_fd_sc_hd__decap_4
XFILLER_19_185 VGND VGND VPWR VPWR sky130_fd_sc_hd__fill_1
XFILLER_25_111 VGND VGND VPWR VPWR sky130_fd_sc_hd__fill_1
XFILLER_16_133 VGND VGND VPWR VPWR sky130_fd_sc_hd__decap_6
Xoutput33 net33 VGND VGND VPWR VPWR current_metric_11[2] sky130_fd_sc_hd__buf_2
Xoutput22 net22 VGND VGND VPWR VPWR current_metric_00[3] sky130_fd_sc_hd__buf_2
XFILLER_16_177 VPWR VGND VPWR VGND sky130_ef_sc_hd__decap_12
XFILLER_26_77 VGND VGND VPWR VPWR sky130_fd_sc_hd__decap_6
XFILLER_13_169 VPWR VGND VPWR VGND sky130_ef_sc_hd__decap_12
XFILLER_13_125 VPWR VGND VPWR VGND sky130_ef_sc_hd__decap_12
X_291_ clknet_1_1__leaf_clk _007_ net45 VGND VGND VPWR VPWR net26 sky130_fd_sc_hd__dfrtp_1
XFILLER_5_7 VGND VGND VPWR VPWR sky130_fd_sc_hd__fill_1
XFILLER_10_139 VGND VGND VPWR VPWR sky130_fd_sc_hd__fill_1
X_274_ _140_ _019_ _027_ _023_ _141_ VGND VGND VPWR VPWR _091_ sky130_fd_sc_hd__a311o_1
XFILLER_0_27 VGND VGND VPWR VPWR sky130_fd_sc_hd__fill_1
X_257_ _072_ _073_ _076_ _080_ _082_ VGND VGND VPWR VPWR _083_ sky130_fd_sc_hd__o221ai_4
X_188_ net21 _130_ VGND VGND VPWR VPWR _016_ sky130_fd_sc_hd__xor2_2
XTAP_TAPCELL_ROW_10_90 VGND VPWR sky130_fd_sc_hd__tapvpwrvgnd_1
XFILLER_13_6 VPWR VGND VPWR VGND sky130_ef_sc_hd__decap_12
XFILLER_25_189 VGND VGND VPWR VPWR sky130_fd_sc_hd__fill_1
XFILLER_25_167 VGND VGND VPWR VPWR sky130_fd_sc_hd__fill_1
XFILLER_15_57 VGND VGND VPWR VPWR sky130_fd_sc_hd__fill_2
Xoutput34 net34 VGND VGND VPWR VPWR current_metric_11[3] sky130_fd_sc_hd__buf_2
Xoutput23 net23 VGND VGND VPWR VPWR current_metric_01[0] sky130_fd_sc_hd__buf_2
XFILLER_16_189 VGND VGND VPWR VPWR sky130_fd_sc_hd__fill_1
XFILLER_21_181 VGND VGND VPWR VPWR sky130_fd_sc_hd__decap_8
XFILLER_13_137 VPWR VGND VPWR VGND sky130_ef_sc_hd__decap_12
X_290_ clknet_1_1__leaf_clk _006_ net44 VGND VGND VPWR VPWR net25 sky130_fd_sc_hd__dfrtp_4
XTAP_TAPCELL_ROW_3_70 VGND VPWR sky130_fd_sc_hd__tapvpwrvgnd_1
XFILLER_8_130 VGND VGND VPWR VPWR sky130_fd_sc_hd__decap_8
XFILLER_8_141 VPWR VGND VPWR VGND sky130_ef_sc_hd__decap_12
X_273_ _039_ _040_ net42 _034_ VGND VGND VPWR VPWR _007_ sky130_fd_sc_hd__o211a_1
XFILLER_4_70 VPWR VGND VPWR VGND sky130_ef_sc_hd__decap_12
X_256_ _076_ _080_ _081_ VGND VGND VPWR VPWR _082_ sky130_fd_sc_hd__a21bo_1
XTAP_TAPCELL_ROW_0_60 VGND VPWR sky130_fd_sc_hd__tapvpwrvgnd_1
XFILLER_0_17 VGND VGND VPWR VPWR sky130_fd_sc_hd__fill_1
X_187_ _131_ _132_ _137_ _138_ VGND VGND VPWR VPWR _141_ sky130_fd_sc_hd__nor4_1
Xclkload0 clknet_1_1__leaf_clk VGND VGND VPWR VPWR clkload0/X sky130_fd_sc_hd__clkbuf_8
X_239_ net23 net5 VGND VGND VPWR VPWR _065_ sky130_fd_sc_hd__nand2_1
XTAP_TAPCELL_ROW_10_91 VGND VPWR sky130_fd_sc_hd__tapvpwrvgnd_1
XFILLER_19_110 VGND VGND VPWR VPWR sky130_fd_sc_hd__fill_2
XFILLER_25_113 VPWR VGND VPWR VGND sky130_ef_sc_hd__decap_12
Xoutput35 net35 VGND VGND VPWR VPWR servivor_select_00 sky130_fd_sc_hd__buf_2
Xoutput24 net24 VGND VGND VPWR VPWR current_metric_01[1] sky130_fd_sc_hd__buf_2
XPHY_EDGE_ROW_19_Right_19 VGND VGND VPWR VPWR sky130_fd_sc_hd__decap_3
XPHY_EDGE_ROW_15_Left_43 VGND VGND VPWR VPWR sky130_fd_sc_hd__decap_3
XFILLER_13_149 VPWR VGND VPWR VGND sky130_ef_sc_hd__decap_12
XFILLER_8_153 VPWR VGND VPWR VGND sky130_ef_sc_hd__decap_12
XPHY_EDGE_ROW_0_Left_28 VGND VGND VPWR VPWR sky130_fd_sc_hd__decap_3
XFILLER_12_15 VPWR VGND VPWR VGND sky130_ef_sc_hd__decap_12
X_272_ _044_ net36 _090_ net43 VGND VGND VPWR VPWR _006_ sky130_fd_sc_hd__o211a_1
XFILLER_5_101 VGND VGND VPWR VPWR sky130_fd_sc_hd__decap_8
XFILLER_5_167 VGND VGND VPWR VPWR sky130_fd_sc_hd__fill_1
XFILLER_5_189 VGND VGND VPWR VPWR sky130_fd_sc_hd__fill_1
XFILLER_4_82 VGND VGND VPWR VPWR sky130_fd_sc_hd__fill_2
X_255_ _057_ _059_ VGND VGND VPWR VPWR _081_ sky130_fd_sc_hd__xnor2_1
X_186_ _131_ _132_ _137_ _138_ VGND VGND VPWR VPWR _140_ sky130_fd_sc_hd__o22ai_4
XFILLER_1_181 VGND VGND VPWR VPWR sky130_fd_sc_hd__decap_4
XTAP_TAPCELL_ROW_0_61 VGND VPWR sky130_fd_sc_hd__tapvpwrvgnd_1
XPHY_EDGE_ROW_3_Left_31 VGND VGND VPWR VPWR sky130_fd_sc_hd__decap_3
X_169_ _118_ _122_ _123_ VGND VGND VPWR VPWR _124_ sky130_fd_sc_hd__a21bo_1
XFILLER_1_83 VPWR VGND VPWR VGND sky130_ef_sc_hd__decap_12
X_238_ net24 net6 VGND VGND VPWR VPWR _064_ sky130_fd_sc_hd__and2_1
XFILLER_19_90 VPWR VGND VPWR VGND sky130_ef_sc_hd__decap_12
XFILLER_10_81 VGND VGND VPWR VPWR sky130_fd_sc_hd__decap_3
XFILLER_25_169 VPWR VGND VPWR VGND sky130_ef_sc_hd__decap_12
XFILLER_25_125 VPWR VGND VPWR VGND sky130_ef_sc_hd__decap_12
Xoutput25 net25 VGND VGND VPWR VPWR current_metric_01[2] sky130_fd_sc_hd__buf_2
Xoutput36 net36 VGND VGND VPWR VPWR servivor_select_01 sky130_fd_sc_hd__buf_2
XFILLER_22_139 VGND VGND VPWR VPWR sky130_fd_sc_hd__fill_1
XFILLER_21_161 VGND VGND VPWR VPWR sky130_fd_sc_hd__decap_6
XTAP_TAPCELL_ROW_14_101 VGND VPWR sky130_fd_sc_hd__tapvpwrvgnd_1
XFILLER_8_165 VPWR VGND VPWR VGND sky130_ef_sc_hd__decap_12
XFILLER_10_109 VPWR VGND VPWR VGND sky130_ef_sc_hd__decap_12
XFILLER_12_27 VGND VGND VPWR VPWR sky130_fd_sc_hd__fill_1
X_271_ _041_ _054_ _055_ _042_ _045_ VGND VGND VPWR VPWR _090_ sky130_fd_sc_hd__a311o_1
XFILLER_5_113 VPWR VGND VPWR VGND sky130_ef_sc_hd__decap_12
X_254_ _058_ _077_ _078_ VGND VGND VPWR VPWR _080_ sky130_fd_sc_hd__or3b_2
XFILLER_2_138 VGND VGND VPWR VPWR sky130_fd_sc_hd__fill_2
X_185_ _137_ _138_ VGND VGND VPWR VPWR _139_ sky130_fd_sc_hd__nor2_1
X_168_ _099_ _101_ VGND VGND VPWR VPWR _123_ sky130_fd_sc_hd__xnor2_1
X_237_ _061_ _062_ VGND VGND VPWR VPWR _063_ sky130_fd_sc_hd__nor2_1
XFILLER_1_95 VPWR VGND VPWR VGND sky130_ef_sc_hd__decap_12
XFILLER_19_167 VGND VGND VPWR VPWR sky130_fd_sc_hd__fill_1
XFILLER_6_29 VGND VGND VPWR VPWR sky130_fd_sc_hd__fill_2
XFILLER_25_137 VPWR VGND VPWR VGND sky130_ef_sc_hd__decap_12
XFILLER_15_16 VPWR VGND VPWR VGND sky130_ef_sc_hd__decap_12
Xoutput37 net37 VGND VGND VPWR VPWR servivor_select_10 sky130_fd_sc_hd__buf_2
XPHY_EDGE_ROW_1_Right_1 VGND VGND VPWR VPWR sky130_fd_sc_hd__decap_3
Xoutput26 net26 VGND VGND VPWR VPWR current_metric_01[3] sky130_fd_sc_hd__buf_2
XTAP_TAPCELL_ROW_17_110 VGND VPWR sky130_fd_sc_hd__tapvpwrvgnd_1
XFILLER_15_181 VGND VGND VPWR VPWR sky130_fd_sc_hd__decap_8
XFILLER_11_6 VGND VGND VPWR VPWR sky130_fd_sc_hd__decap_8
XFILLER_26_15 VPWR VGND VPWR VGND sky130_ef_sc_hd__decap_12
XFILLER_16_81 VGND VGND VPWR VPWR sky130_fd_sc_hd__decap_3
XTAP_TAPCELL_ROW_14_102 VGND VPWR sky130_fd_sc_hd__tapvpwrvgnd_1
XFILLER_8_177 VPWR VGND VPWR VGND sky130_ef_sc_hd__decap_12
X_270_ _051_ net36 _089_ net43 VGND VGND VPWR VPWR _005_ sky130_fd_sc_hd__o211a_1
XFILLER_5_125 VPWR VGND VPWR VGND sky130_ef_sc_hd__decap_12
XFILLER_5_169 VPWR VGND VPWR VGND sky130_ef_sc_hd__decap_12
XFILLER_2_106 VPWR VGND VPWR VGND sky130_ef_sc_hd__decap_12
XFILLER_13_60 VGND VGND VPWR VPWR sky130_fd_sc_hd__decap_4
XFILLER_1_161 VGND VGND VPWR VPWR sky130_fd_sc_hd__decap_6
X_253_ _059_ _078_ VGND VGND VPWR VPWR _079_ sky130_fd_sc_hd__and2_1
X_184_ net25 _136_ net26 VGND VGND VPWR VPWR _138_ sky130_fd_sc_hd__a21oi_2
X_167_ _100_ _119_ _120_ VGND VGND VPWR VPWR _122_ sky130_fd_sc_hd__or3b_2
X_236_ net21 _060_ net22 VGND VGND VPWR VPWR _062_ sky130_fd_sc_hd__a21oi_2
XFILLER_19_113 VPWR VGND VPWR VGND sky130_ef_sc_hd__decap_12
XFILLER_19_102 VGND VGND VPWR VPWR sky130_fd_sc_hd__decap_8
XFILLER_25_105 VGND VGND VPWR VPWR sky130_fd_sc_hd__decap_6
X_219_ _036_ _037_ VGND VGND VPWR VPWR _046_ sky130_fd_sc_hd__xor2_1
Xoutput38 net38 VGND VGND VPWR VPWR servivor_select_11 sky130_fd_sc_hd__buf_2
XFILLER_25_149 VPWR VGND VPWR VGND sky130_ef_sc_hd__decap_12
Xoutput27 net27 VGND VGND VPWR VPWR current_metric_10[0] sky130_fd_sc_hd__buf_2
XTAP_TAPCELL_ROW_17_111 VGND VPWR sky130_fd_sc_hd__tapvpwrvgnd_1
Xclkbuf_0_clk clk VGND VGND VPWR VPWR clknet_0_clk sky130_fd_sc_hd__clkbuf_16
XFILLER_26_27 VGND VGND VPWR VPWR sky130_fd_sc_hd__fill_1
XPHY_EDGE_ROW_24_Right_24 VGND VGND VPWR VPWR sky130_fd_sc_hd__decap_3
XPHY_EDGE_ROW_15_Right_15 VGND VGND VPWR VPWR sky130_fd_sc_hd__decap_3
XTAP_TAPCELL_ROW_14_103 VGND VPWR sky130_fd_sc_hd__tapvpwrvgnd_1
XFILLER_12_141 VPWR VGND VPWR VGND sky130_ef_sc_hd__decap_12
XFILLER_8_189 VGND VGND VPWR VPWR sky130_fd_sc_hd__fill_1
XPHY_EDGE_ROW_19_Left_47 VGND VGND VPWR VPWR sky130_fd_sc_hd__decap_3
XFILLER_12_29 VGND VGND VPWR VPWR sky130_fd_sc_hd__decap_4
XFILLER_5_137 VPWR VGND VPWR VGND sky130_ef_sc_hd__decap_12
XFILLER_27_81 VGND VGND VPWR VPWR sky130_fd_sc_hd__decap_3
XFILLER_4_85 VPWR VGND VPWR VGND sky130_ef_sc_hd__decap_12
XFILLER_2_118 VPWR VGND VPWR VGND sky130_ef_sc_hd__decap_12
X_252_ net19 net1 VGND VGND VPWR VPWR _078_ sky130_fd_sc_hd__or2_1
X_183_ net25 net26 _136_ VGND VGND VPWR VPWR _137_ sky130_fd_sc_hd__and3_1
X_235_ net21 net22 _060_ VGND VGND VPWR VPWR _061_ sky130_fd_sc_hd__and3_1
X_166_ _101_ _120_ VGND VGND VPWR VPWR _121_ sky130_fd_sc_hd__and2_1
XPHY_EDGE_ROW_7_Left_35 VGND VGND VPWR VPWR sky130_fd_sc_hd__decap_3
XFILLER_19_169 VPWR VGND VPWR VGND sky130_ef_sc_hd__decap_12
XFILLER_19_125 VPWR VGND VPWR VGND sky130_ef_sc_hd__decap_12
X_149_ net29 _102_ net30 VGND VGND VPWR VPWR _104_ sky130_fd_sc_hd__a21oi_2
X_218_ net33 _038_ VGND VGND VPWR VPWR _045_ sky130_fd_sc_hd__xor2_1
Xoutput28 net28 VGND VGND VPWR VPWR current_metric_10[1] sky130_fd_sc_hd__buf_2
XFILLER_16_139 VGND VGND VPWR VPWR sky130_fd_sc_hd__fill_1
XFILLER_22_109 VPWR VGND VPWR VGND sky130_ef_sc_hd__decap_12
XTAP_TAPCELL_ROW_17_112 VGND VPWR sky130_fd_sc_hd__tapvpwrvgnd_1
XFILLER_15_161 VGND VGND VPWR VPWR sky130_fd_sc_hd__decap_6
XFILLER_13_109 VGND VGND VPWR VPWR sky130_fd_sc_hd__decap_3
XFILLER_12_153 VPWR VGND VPWR VGND sky130_ef_sc_hd__decap_12
XFILLER_5_149 VPWR VGND VPWR VGND sky130_ef_sc_hd__decap_12
XPHY_EDGE_ROW_20_Left_48 VGND VGND VPWR VPWR sky130_fd_sc_hd__decap_3
XFILLER_4_97 VPWR VGND VPWR VGND sky130_ef_sc_hd__decap_12
XFILLER_1_185 VGND VGND VPWR VPWR sky130_fd_sc_hd__fill_1
X_251_ net23 net5 VGND VGND VPWR VPWR _077_ sky130_fd_sc_hd__xor2_1
X_182_ _134_ _135_ _133_ VGND VGND VPWR VPWR _136_ sky130_fd_sc_hd__o21ai_2
XFILLER_18_29 VGND VGND VPWR VPWR sky130_fd_sc_hd__decap_4
XFILLER_24_72 VPWR VGND VPWR VGND sky130_ef_sc_hd__decap_12
XPHY_EDGE_ROW_23_Left_51 VGND VGND VPWR VPWR sky130_fd_sc_hd__decap_3
X_165_ net27 net11 VGND VGND VPWR VPWR _120_ sky130_fd_sc_hd__or2_1
X_303_ clknet_1_1__leaf_clk _015_ net45 VGND VGND VPWR VPWR net34 sky130_fd_sc_hd__dfrtp_2
XFILLER_1_10 VGND VGND VPWR VPWR sky130_fd_sc_hd__fill_2
X_234_ _057_ _058_ _056_ VGND VGND VPWR VPWR _060_ sky130_fd_sc_hd__a21o_1
XFILLER_19_137 VPWR VGND VPWR VGND sky130_ef_sc_hd__decap_12
X_148_ net30 net29 _102_ VGND VGND VPWR VPWR _103_ sky130_fd_sc_hd__and3_1
X_217_ _043_ VGND VGND VPWR VPWR _044_ sky130_fd_sc_hd__inv_2
XFILLER_10_52 VGND VGND VPWR VPWR sky130_fd_sc_hd__fill_1
XFILLER_10_85 VPWR VGND VPWR VGND sky130_ef_sc_hd__decap_12
XFILLER_25_3 VPWR VGND VPWR VGND sky130_ef_sc_hd__decap_12
Xoutput29 net29 VGND VGND VPWR VPWR current_metric_10[2] sky130_fd_sc_hd__buf_2
XFILLER_21_84 VPWR VGND VPWR VGND sky130_ef_sc_hd__decap_12
XFILLER_7_20 VGND VGND VPWR VPWR sky130_fd_sc_hd__fill_1
XFILLER_7_86 VPWR VGND VPWR VGND sky130_ef_sc_hd__decap_12
XFILLER_26_29 VPWR VGND VPWR VGND sky130_ef_sc_hd__decap_12
XPHY_EDGE_ROW_5_Right_5 VGND VGND VPWR VPWR sky130_fd_sc_hd__decap_3
XFILLER_12_165 VPWR VGND VPWR VGND sky130_ef_sc_hd__decap_12
XFILLER_12_121 VPWR VGND VPWR VGND sky130_ef_sc_hd__decap_12
XTAP_TAPCELL_ROW_20_119 VGND VPWR sky130_fd_sc_hd__tapvpwrvgnd_1
XFILLER_4_10 VGND VGND VPWR VPWR sky130_fd_sc_hd__decap_4
XFILLER_13_85 VPWR VGND VPWR VGND sky130_ef_sc_hd__decap_12
X_250_ _065_ _066_ VGND VGND VPWR VPWR _076_ sky130_fd_sc_hd__xnor2_2
X_181_ net23 net7 VGND VGND VPWR VPWR _135_ sky130_fd_sc_hd__nand2_1
Xfanout42 _097_ VGND VGND VPWR VPWR net42 sky130_fd_sc_hd__buf_2
XTAP_TAPCELL_ROW_9_86 VGND VPWR sky130_fd_sc_hd__tapvpwrvgnd_1
X_164_ net31 net15 VGND VGND VPWR VPWR _119_ sky130_fd_sc_hd__xor2_1
X_302_ clknet_1_1__leaf_clk _014_ net45 VGND VGND VPWR VPWR net33 sky130_fd_sc_hd__dfrtp_4
X_233_ net19 net1 VGND VGND VPWR VPWR _059_ sky130_fd_sc_hd__nand2_1
XFILLER_19_149 VPWR VGND VPWR VGND sky130_ef_sc_hd__decap_12
XFILLER_10_97 VPWR VGND VPWR VGND sky130_ef_sc_hd__decap_12
X_147_ _099_ _100_ _098_ VGND VGND VPWR VPWR _102_ sky130_fd_sc_hd__a21o_1
X_216_ net29 _031_ VGND VGND VPWR VPWR _043_ sky130_fd_sc_hd__xnor2_1
XFILLER_24_141 VPWR VGND VPWR VGND sky130_ef_sc_hd__decap_12
XFILLER_21_96 VPWR VGND VPWR VGND sky130_ef_sc_hd__decap_12
Xoutput19 net19 VGND VGND VPWR VPWR current_metric_00[0] sky130_fd_sc_hd__buf_2
XFILLER_7_98 VPWR VGND VPWR VGND sky130_ef_sc_hd__decap_12
XTAP_TAPCELL_ROW_23_128 VGND VPWR sky130_fd_sc_hd__tapvpwrvgnd_1
XPHY_EDGE_ROW_20_Right_20 VGND VGND VPWR VPWR sky130_fd_sc_hd__decap_3
XFILLER_16_85 VPWR VGND VPWR VGND sky130_ef_sc_hd__decap_12
XFILLER_12_177 VPWR VGND VPWR VGND sky130_ef_sc_hd__decap_12
XFILLER_12_133 VGND VGND VPWR VPWR sky130_fd_sc_hd__decap_6
XPHY_EDGE_ROW_11_Right_11 VGND VGND VPWR VPWR sky130_fd_sc_hd__decap_3
XFILLER_7_181 VGND VGND VPWR VPWR sky130_fd_sc_hd__decap_8
Xfanout43 _097_ VGND VGND VPWR VPWR net43 sky130_fd_sc_hd__clkbuf_2
XFILLER_13_97 VPWR VGND VPWR VGND sky130_ef_sc_hd__decap_12
XFILLER_13_64 VGND VGND VPWR VPWR sky130_fd_sc_hd__fill_1
X_180_ net24 net8 VGND VGND VPWR VPWR _134_ sky130_fd_sc_hd__xnor2_2
XTAP_TAPCELL_ROW_0_56 VGND VPWR sky130_fd_sc_hd__tapvpwrvgnd_1
XTAP_TAPCELL_ROW_9_87 VGND VPWR sky130_fd_sc_hd__tapvpwrvgnd_1
XFILLER_24_85 VPWR VGND VPWR VGND sky130_ef_sc_hd__decap_12
XFILLER_24_41 VPWR VGND VPWR VGND sky130_ef_sc_hd__decap_12
X_301_ clknet_1_1__leaf_clk _013_ net45 VGND VGND VPWR VPWR net32 sky130_fd_sc_hd__dfrtp_4
X_163_ _107_ _108_ VGND VGND VPWR VPWR _118_ sky130_fd_sc_hd__xnor2_2
X_232_ net19 net1 VGND VGND VPWR VPWR _058_ sky130_fd_sc_hd__and2_1
XFILLER_27_172 VPWR VGND VPWR VGND sky130_ef_sc_hd__decap_12
XFILLER_19_52 VGND VGND VPWR VPWR sky130_fd_sc_hd__fill_1
X_146_ net27 net11 VGND VGND VPWR VPWR _101_ sky130_fd_sc_hd__nand2_1
X_215_ _032_ _033_ _039_ _040_ VGND VGND VPWR VPWR _042_ sky130_fd_sc_hd__o22a_2
XTAP_TAPCELL_ROW_6_77 VGND VPWR sky130_fd_sc_hd__tapvpwrvgnd_1
XTAP_TAPCELL_ROW_26_137 VGND VPWR sky130_fd_sc_hd__tapvpwrvgnd_1
XFILLER_24_153 VPWR VGND VPWR VGND sky130_ef_sc_hd__decap_12
XFILLER_16_109 VPWR VGND VPWR VGND sky130_ef_sc_hd__decap_12
XFILLER_21_75 VGND VGND VPWR VPWR sky130_fd_sc_hd__decap_4
Xmax_cap40 _141_ VGND VGND VPWR VPWR net40 sky130_fd_sc_hd__buf_1
XTAP_TAPCELL_ROW_23_129 VGND VPWR sky130_fd_sc_hd__tapvpwrvgnd_1
XFILLER_21_189 VGND VGND VPWR VPWR sky130_fd_sc_hd__fill_1
XFILLER_21_167 VGND VGND VPWR VPWR sky130_fd_sc_hd__fill_1
XFILLER_16_97 VPWR VGND VPWR VGND sky130_ef_sc_hd__decap_12
XFILLER_12_189 VGND VGND VPWR VPWR sky130_fd_sc_hd__fill_1
XFILLER_8_138 VGND VGND VPWR VPWR sky130_fd_sc_hd__fill_2
XFILLER_27_41 VPWR VGND VPWR VGND sky130_ef_sc_hd__decap_12
XFILLER_27_85 VPWR VGND VPWR VGND sky130_ef_sc_hd__decap_12
XFILLER_4_45 VGND VGND VPWR VPWR sky130_fd_sc_hd__fill_2
XFILLER_4_141 VPWR VGND VPWR VGND sky130_ef_sc_hd__decap_12
XTAP_TAPCELL_ROW_13_98 VGND VPWR sky130_fd_sc_hd__tapvpwrvgnd_1
Xfanout44 net45 VGND VGND VPWR VPWR net44 sky130_fd_sc_hd__clkbuf_4
XFILLER_1_111 VGND VGND VPWR VPWR sky130_fd_sc_hd__fill_1
XTAP_TAPCELL_ROW_0_57 VGND VPWR sky130_fd_sc_hd__tapvpwrvgnd_1
XFILLER_8_3 VGND VGND VPWR VPWR sky130_fd_sc_hd__decap_8
XTAP_TAPCELL_ROW_9_88 VGND VPWR sky130_fd_sc_hd__tapvpwrvgnd_1
XFILLER_24_97 VPWR VGND VPWR VGND sky130_ef_sc_hd__decap_12
XFILLER_24_53 VPWR VGND VPWR VGND sky130_ef_sc_hd__decap_12
X_300_ clknet_1_1__leaf_clk _012_ net45 VGND VGND VPWR VPWR net31 sky130_fd_sc_hd__dfrtp_4
X_162_ _114_ _115_ VGND VGND VPWR VPWR _117_ sky130_fd_sc_hd__nand2_2
X_231_ net20 net2 VGND VGND VPWR VPWR _057_ sky130_fd_sc_hd__xor2_1
Xinput1 bm_00_00[0] VGND VGND VPWR VPWR net1 sky130_fd_sc_hd__clkbuf_1
XFILLER_27_184 VGND VGND VPWR VPWR sky130_fd_sc_hd__fill_2
XPHY_EDGE_ROW_27_Left_55 VGND VGND VPWR VPWR sky130_fd_sc_hd__decap_3
X_145_ net27 net11 VGND VGND VPWR VPWR _100_ sky130_fd_sc_hd__and2_1
X_214_ _032_ _033_ _039_ _040_ VGND VGND VPWR VPWR _041_ sky130_fd_sc_hd__or4_2
XTAP_TAPCELL_ROW_6_78 VGND VPWR sky130_fd_sc_hd__tapvpwrvgnd_1
XPHY_EDGE_ROW_11_Left_39 VGND VGND VPWR VPWR sky130_fd_sc_hd__decap_3
XTAP_TAPCELL_ROW_26_138 VGND VPWR sky130_fd_sc_hd__tapvpwrvgnd_1
XFILLER_24_121 VPWR VGND VPWR VGND sky130_ef_sc_hd__decap_12
XFILLER_24_165 VPWR VGND VPWR VGND sky130_ef_sc_hd__decap_12
Xmax_cap41 _113_ VGND VGND VPWR VPWR net41 sky130_fd_sc_hd__buf_1
XFILLER_23_3 VGND VGND VPWR VPWR sky130_fd_sc_hd__decap_6
XFILLER_21_113 VPWR VGND VPWR VGND sky130_ef_sc_hd__decap_12
XFILLER_16_10 VGND VGND VPWR VPWR sky130_fd_sc_hd__decap_4
XTAP_TAPCELL_ROW_3_68 VGND VPWR sky130_fd_sc_hd__tapvpwrvgnd_1
XFILLER_8_106 VPWR VGND VPWR VGND sky130_ef_sc_hd__decap_12
XFILLER_7_161 VGND VGND VPWR VPWR sky130_fd_sc_hd__decap_6
XPHY_EDGE_ROW_9_Right_9 VGND VGND VPWR VPWR sky130_fd_sc_hd__decap_3
XPHY_EDGE_ROW_14_Left_42 VGND VGND VPWR VPWR sky130_fd_sc_hd__decap_3
XFILLER_5_109 VGND VGND VPWR VPWR sky130_fd_sc_hd__decap_3
XFILLER_27_97 VPWR VGND VPWR VGND sky130_ef_sc_hd__decap_12
XFILLER_27_53 VGND VGND VPWR VPWR sky130_fd_sc_hd__decap_3
XFILLER_4_24 VGND VGND VPWR VPWR sky130_fd_sc_hd__decap_4
XFILLER_4_153 VPWR VGND VPWR VGND sky130_ef_sc_hd__decap_12
XTAP_TAPCELL_ROW_13_99 VGND VPWR sky130_fd_sc_hd__tapvpwrvgnd_1
Xfanout45 net18 VGND VGND VPWR VPWR net45 sky130_fd_sc_hd__buf_2
XFILLER_1_167 VGND VGND VPWR VPWR sky130_fd_sc_hd__fill_1
XTAP_TAPCELL_ROW_0_58 VGND VPWR sky130_fd_sc_hd__tapvpwrvgnd_1
XFILLER_24_65 VGND VGND VPWR VPWR sky130_fd_sc_hd__decap_4
X_161_ _115_ VGND VGND VPWR VPWR _116_ sky130_fd_sc_hd__inv_2
X_230_ net20 net2 VGND VGND VPWR VPWR _056_ sky130_fd_sc_hd__and2_1
Xinput2 bm_00_00[1] VGND VGND VPWR VPWR net2 sky130_fd_sc_hd__clkbuf_1
XTAP_TAPCELL_ROW_10_89 VGND VPWR sky130_fd_sc_hd__tapvpwrvgnd_1
XFILLER_27_141 VPWR VGND VPWR VGND sky130_ef_sc_hd__decap_12
XFILLER_19_10 VGND VGND VPWR VPWR sky130_fd_sc_hd__fill_1
X_144_ net28 net12 VGND VGND VPWR VPWR _099_ sky130_fd_sc_hd__xor2_1
X_213_ net33 _038_ net34 VGND VGND VPWR VPWR _040_ sky130_fd_sc_hd__a21boi_1
XPHY_EDGE_ROW_2_Left_30 VGND VGND VPWR VPWR sky130_fd_sc_hd__decap_3
XTAP_TAPCELL_ROW_6_79 VGND VPWR sky130_fd_sc_hd__tapvpwrvgnd_1
XFILLER_18_141 VPWR VGND VPWR VGND sky130_ef_sc_hd__decap_12
XTAP_TAPCELL_ROW_26_139 VGND VPWR sky130_fd_sc_hd__tapvpwrvgnd_1