*SPEF "ieee 1481-1999"
*DESIGN "Controller"
*DATE "18:58:22 Wednesday January 21, 2026"
*VENDOR "The OpenROAD Project"
*PROGRAM "OpenROAD"
*VERSION "edf00dff99f6c40d67a30c0e22a8191c5d2ed9d6"
*DESIGN_FLOW "NAME_SCOPE LOCAL" "PIN_CAP NONE"
*DIVIDER /
*DELIMITER :
*BUS_DELIMITER []
*T_UNIT 1 NS
*C_UNIT 1 PF
*R_UNIT 1 OHM
*L_UNIT 1 HENRY

*NAME_MAP
*3 clk
*4 clr_me
*5 frame_done
*6 rst_n
*7 start
*8 _00_
*9 _01_
*10 _02_
*11 _03_
*12 _04_
*13 _05_
*14 _06_
*15 _07_
*16 _08_
*17 _09_
*18 _10_
*19 _11_
*20 _12_
*21 clknet_0_clk
*22 clknet_1_0__leaf_clk
*23 clknet_1_1__leaf_clk
*24 net1
*25 net2
*26 net3
*27 net4
*28 net5
*29 net6
*30 net7
*31 next_state\[0\]
*32 next_state\[1\]
*33 state\[0\]
*34 state\[1\]
*35 sym_cnt\[0\]
*36 sym_cnt\[1\]
*37 sym_cnt\[2\]
*38 sym_cnt\[3\]
*39 FILLER_0_109
*40 FILLER_0_113
*41 FILLER_0_125
*42 FILLER_0_137
*43 FILLER_0_141
*44 FILLER_0_15
*45 FILLER_0_153
*46 FILLER_0_165
*47 FILLER_0_173
*48 FILLER_0_185
*49 FILLER_0_189
*50 FILLER_0_19
*51 FILLER_0_29
*52 FILLER_0_3
*53 FILLER_0_57
*54 FILLER_0_79
*55 FILLER_0_83
*56 FILLER_0_85
*57 FILLER_0_97
*58 FILLER_1_105
*59 FILLER_1_111
*60 FILLER_1_113
*61 FILLER_1_125
*62 FILLER_1_137
*63 FILLER_1_149
*64 FILLER_1_15
*65 FILLER_1_161
*66 FILLER_1_167
*67 FILLER_1_169
*68 FILLER_1_181
*69 FILLER_1_189
*70 FILLER_1_27
*71 FILLER_1_3
*72 FILLER_1_31
*73 FILLER_1_55
*74 FILLER_1_57
*75 FILLER_2_108
*76 FILLER_2_120
*77 FILLER_2_132
*78 FILLER_2_141
*79 FILLER_2_15
*80 FILLER_2_153
*81 FILLER_2_165
*82 FILLER_2_177
*83 FILLER_2_189
*84 FILLER_2_21
*85 FILLER_2_3
*86 FILLER_2_58
*87 FILLER_2_79
*88 FILLER_2_85
*89 FILLER_3_108
*90 FILLER_3_113
*91 FILLER_3_125
*92 FILLER_3_137
*93 FILLER_3_149
*94 FILLER_3_15
*95 FILLER_3_161
*96 FILLER_3_167
*97 FILLER_3_169
*98 FILLER_3_181
*99 FILLER_3_189
*100 FILLER_3_27
*101 FILLER_3_3
*102 FILLER_3_41
*103 FILLER_3_52
*104 FILLER_3_96
*105 FILLER_4_109
*106 FILLER_4_121
*107 FILLER_4_133
*108 FILLER_4_139
*109 FILLER_4_141
*110 FILLER_4_153
*111 FILLER_4_165
*112 FILLER_4_177
*113 FILLER_4_18
*114 FILLER_4_185
*115 FILLER_4_26
*116 FILLER_4_29
*117 FILLER_4_41
*118 FILLER_4_48
*119 FILLER_4_6
*120 FILLER_4_83
*121 FILLER_4_85
*122 FILLER_4_97
*123 FILLER_5_109
*124 FILLER_5_113
*125 FILLER_5_125
*126 FILLER_5_137
*127 FILLER_5_149
*128 FILLER_5_15
*129 FILLER_5_161
*130 FILLER_5_167
*131 FILLER_5_169
*132 FILLER_5_181
*133 FILLER_5_189
*134 FILLER_5_27
*135 FILLER_5_3
*136 FILLER_5_39
*137 FILLER_5_51
*138 FILLER_5_55
*139 FILLER_5_57
*140 FILLER_5_73
*141 FILLER_5_85
*142 FILLER_5_97
*143 FILLER_6_109
*144 FILLER_6_121
*145 FILLER_6_133
*146 FILLER_6_139
*147 FILLER_6_141
*148 FILLER_6_15
*149 FILLER_6_153
*150 FILLER_6_165
*151 FILLER_6_177
*152 FILLER_6_189
*153 FILLER_6_27
*154 FILLER_6_29
*155 FILLER_6_3
*156 FILLER_6_41
*157 FILLER_6_53
*158 FILLER_6_65
*159 FILLER_6_77
*160 FILLER_6_83
*161 FILLER_6_85
*162 FILLER_6_97
*163 FILLER_7_109
*164 FILLER_7_113
*165 FILLER_7_125
*166 FILLER_7_137
*167 FILLER_7_141
*168 FILLER_7_15
*169 FILLER_7_153
*170 FILLER_7_165
*171 FILLER_7_169
*172 FILLER_7_181
*173 FILLER_7_189
*174 FILLER_7_27
*175 FILLER_7_29
*176 FILLER_7_3
*177 FILLER_7_41
*178 FILLER_7_53
*179 FILLER_7_57
*180 FILLER_7_69
*181 FILLER_7_81
*182 FILLER_7_85
*183 FILLER_7_97
*184 PHY_EDGE_ROW_0_Left_8
*185 PHY_EDGE_ROW_0_Right_0
*186 PHY_EDGE_ROW_1_Left_9
*187 PHY_EDGE_ROW_1_Right_1
*188 PHY_EDGE_ROW_2_Left_10
*189 PHY_EDGE_ROW_2_Right_2
*190 PHY_EDGE_ROW_3_Left_11
*191 PHY_EDGE_ROW_3_Right_3
*192 PHY_EDGE_ROW_4_Left_12
*193 PHY_EDGE_ROW_4_Right_4
*194 PHY_EDGE_ROW_5_Left_13
*195 PHY_EDGE_ROW_5_Right_5
*196 PHY_EDGE_ROW_6_Left_14
*197 PHY_EDGE_ROW_6_Right_6
*198 PHY_EDGE_ROW_7_Left_15
*199 PHY_EDGE_ROW_7_Right_7
*200 TAP_TAPCELL_ROW_0_16
*201 TAP_TAPCELL_ROW_0_17
*202 TAP_TAPCELL_ROW_0_18
*203 TAP_TAPCELL_ROW_0_19
*204 TAP_TAPCELL_ROW_0_20
*205 TAP_TAPCELL_ROW_0_21
*206 TAP_TAPCELL_ROW_1_22
*207 TAP_TAPCELL_ROW_1_23
*208 TAP_TAPCELL_ROW_1_24
*209 TAP_TAPCELL_ROW_2_25
*210 TAP_TAPCELL_ROW_2_26
*211 TAP_TAPCELL_ROW_2_27
*212 TAP_TAPCELL_ROW_3_28
*213 TAP_TAPCELL_ROW_3_29
*214 TAP_TAPCELL_ROW_3_30
*215 TAP_TAPCELL_ROW_4_31
*216 TAP_TAPCELL_ROW_4_32
*217 TAP_TAPCELL_ROW_4_33
*218 TAP_TAPCELL_ROW_5_34
*219 TAP_TAPCELL_ROW_5_35
*220 TAP_TAPCELL_ROW_5_36
*221 TAP_TAPCELL_ROW_6_37
*222 TAP_TAPCELL_ROW_6_38
*223 TAP_TAPCELL_ROW_6_39
*224 TAP_TAPCELL_ROW_7_40
*225 TAP_TAPCELL_ROW_7_41
*226 TAP_TAPCELL_ROW_7_42
*227 TAP_TAPCELL_ROW_7_43
*228 TAP_TAPCELL_ROW_7_44
*229 TAP_TAPCELL_ROW_7_45
*230 _13_
*231 _14_
*232 _15_
*233 _16_
*234 _17_
*235 _18_
*236 _19_
*237 _20_
*238 _21_
*239 _22_
*240 _23_
*241 _24_
*242 _25_
*243 _26_
*244 _27_
*245 _28_
*246 _29_
*247 _30_
*248 _31_
*249 _32_
*250 _33_
*251 _34_
*252 _35_
*253 clkbuf_0_clk
*254 clkbuf_1_0__f_clk
*255 clkbuf_1_1__f_clk
*256 hold1
*257 hold2
*258 hold3
*259 input1
*260 input2
*261 output3
*262 output4

*PORTS
clk I
clr_me O
frame_done O
rst_n I
start I

*D_NET *3 0.00293231
*CONN
*P clk I
*I *253:A I *D sky130_fd_sc_hd__clkbuf_16
*CAP
1 clk 0.00110456
2 *253:A 0
3 *3:15 0.00110456
4 *3:15 *236:B 0.000114785
5 *3:15 *255:A 0.000451059
6 *3:15 *9:10 0
7 *3:15 *18:10 3.3577e-05
8 *3:15 *23:8 9.24795e-06
9 *3:15 *27:37 0.00011451
*RES
1 clk *3:15 39.1943 
2 *3:15 *253:A 23 
*END

*D_NET *4 0.00101062
*CONN
*P clr_me O
*I *261:X O *D sky130_fd_sc_hd__buf_2
*CAP
1 clr_me 0.000482947
2 *261:X 0.000482947
3 clr_me *243:A1 1.24376e-05
4 clr_me *261:A 3.22879e-05
*RES
1 *261:X clr_me 47.57 
*END

*D_NET *5 0.000481227
*CONN
*P frame_done O
*I *262:X O *D sky130_fd_sc_hd__buf_2
*CAP
1 frame_done 0.000234243
2 *262:X 0.000234243
3 frame_done *27:43 1.27424e-05
*RES
1 *262:X frame_done 47.0789 
*END

*D_NET *6 0.000971287
*CONN
*P rst_n I
*I *259:A I *D sky130_fd_sc_hd__clkbuf_2
*CAP
1 rst_n 0.000485644
2 *259:A 0.000485644
*RES
1 rst_n *259:A 47.9221 
*END

*D_NET *7 0.000570417
*CONN
*P start I
*I *260:A I *D sky130_fd_sc_hd__clkbuf_1
*CAP
1 start 0.000285209
2 *260:A 0
3 *7:13 0.000285209
*RES
1 start *7:13 27.2716 
2 *7:13 *260:A 23 
*END

*D_NET *8 0.00130676
*CONN
*I *249:D I *D sky130_fd_sc_hd__dfrtp_1
*I *233:Y O *D sky130_fd_sc_hd__nor2_1
*CAP
1 *249:D 0.000208044
2 *233:Y 0.000145615
3 *8:8 0.000353659
4 *249:D *19:16 0.000144403
5 *8:8 *11:10 0.000156153
6 *8:8 *33:23 8.30946e-05
7 *8:8 *33:36 0.000215791
*RES
1 *233:Y *8:8 42.3707 
2 *8:8 *249:D 42.1221 
*END

*D_NET *9 0.00140111
*CONN
*I *250:D I *D sky130_fd_sc_hd__dfrtp_1
*I *236:X O *D sky130_fd_sc_hd__and3_1
*CAP
1 *250:D 1.59375e-05
2 *236:X 0.000597181
3 *9:10 0.000613119
4 *250:D *24:22 8.82053e-06
5 *9:10 *236:B 0
6 *9:10 *13:82 7.59964e-05
7 *9:10 *23:36 9.00542e-05
8 *3:15 *9:10 0
*RES
1 *236:X *9:10 49.0407 
2 *9:10 *250:D 38.2071 
*END

*D_NET *10 0.000685483
*CONN
*I *251:D I *D sky130_fd_sc_hd__dfrtp_1
*I *239:X O *D sky130_fd_sc_hd__and3_1
*CAP
1 *251:D 6.44851e-05
2 *239:X 9.37783e-05
3 *10:8 0.000158263
4 *251:D *240:A 3.22879e-05
5 *251:D *240:C 8.47188e-05
6 *251:D *24:36 0.000153145
7 *10:8 *239:C 3.62219e-05
8 *10:8 *24:36 6.25829e-05
*RES
1 *239:X *10:8 39.9057 
2 *10:8 *251:D 41.0036 
*END

*D_NET *11 0.00153227
*CONN
*I *252:D I *D sky130_fd_sc_hd__dfrtp_1
*I *240:X O *D sky130_fd_sc_hd__and3_1
*CAP
1 *252:D 0
2 *240:X 0.000490353
3 *11:10 0.000490353
4 *11:10 *231:A_N 0
5 *11:10 *233:A 0.000228001
6 *11:10 *249:CLK 6.32792e-05
7 *11:10 *251:CLK 0.000104133
8 *11:10 *13:40 0
9 *11:10 *29:10 0
10 *11:10 *34:30 0
11 *8:8 *11:10 0.000156153
*RES
1 *240:X *11:10 47.715 
2 *11:10 *252:D 38 
*END

*D_NET *12 0.000326037
*CONN
*I *246:A1 I *D sky130_fd_sc_hd__a211oi_1
*I *230:Y O *D sky130_fd_sc_hd__inv_2
*CAP
1 *246:A1 0.00012502
2 *230:Y 0.00012502
3 *246:A1 *246:C1 7.59964e-05
*RES
1 *230:Y *246:A1 48.0507 
*END

*D_NET *13 0.00961748
*CONN
*I *236:A I *D sky130_fd_sc_hd__and3_1
*I *239:A I *D sky130_fd_sc_hd__and3_1
*I *240:B I *D sky130_fd_sc_hd__and3_1
*I *244:A I *D sky130_fd_sc_hd__and2_1
*I *246:B1 I *D sky130_fd_sc_hd__a211oi_1
*I *231:X O *D sky130_fd_sc_hd__and2b_1
*CAP
1 *236:A 0
2 *239:A 0.000229082
3 *240:B 0.000183684
4 *244:A 2.14194e-05
5 *246:B1 0
6 *231:X 0
7 *13:82 0.000657074
8 *13:63 0.00133106
9 *13:40 0.00161892
10 *13:22 0.00022105
11 *13:14 0.00082263
12 *13:4 0.0015705
13 *239:A *239:C 0.000153667
14 *239:A *18:10 3.83778e-05
15 *239:A *24:55 1.11421e-05
16 *239:A *36:23 0.000200785
17 *240:B *251:CLK 0
18 *240:B *14:25 0
19 *240:B *29:10 0.000108681
20 *244:A *19:16 5.90675e-06
21 *13:14 *246:A2 0
22 *13:14 *252:CLK 9.70425e-05
23 *13:14 *19:16 0.000143869
24 *13:14 *19:24 4.95081e-05
25 *13:14 *25:10 0
26 *13:14 *32:22 5.56336e-05
27 *13:22 *19:24 0.000213273
28 *13:40 *231:A_N 0.000141954
29 *13:40 *249:CLK 0
30 *13:40 *251:CLK 0
31 *13:40 *252:CLK 0.000168927
32 *13:40 *29:10 0.000422107
33 *13:63 *254:A 2.97326e-05
34 *13:63 *255:A 0.000302003
35 *13:63 *18:10 2.93845e-05
36 *13:63 *24:55 1.09783e-05
37 *13:82 *236:C 0.000178424
38 *13:82 *237:A1 3.44746e-05
39 *13:82 *237:B1 6.57264e-05
40 *13:82 *24:55 4.03181e-05
41 *13:82 *35:6 4.31969e-05
42 *13:82 *35:15 9.44537e-05
43 *13:82 *35:77 0.000170394
44 *13:82 *36:23 1.34542e-05
45 *13:82 *36:32 6.26566e-05
46 *9:10 *13:82 7.59964e-05
47 *11:10 *13:40 0
*RES
1 *231:X *13:4 23 
2 *13:4 *13:14 39.0936 
3 *13:14 *13:22 34.0807 
4 *13:22 *246:B1 23 
5 *13:14 *244:A 23.4971 
6 *13:4 *13:40 30.4529 
7 *13:40 *240:B 40.9621 
8 *13:40 *13:63 39.2282 
9 *13:63 *239:A 43.9554 
10 *13:63 *13:82 27.3768 
11 *13:82 *236:A 23 
*END

*D_NET *14 0.00265944
*CONN
*I *233:B I *D sky130_fd_sc_hd__nor2_1
*I *243:A1 I *D sky130_fd_sc_hd__o21ai_1
*I *232:Y O *D sky130_fd_sc_hd__nand2b_1
*CAP
1 *233:B 0
2 *243:A1 0.000857696
3 *232:Y 0
4 *14:25 0.000220893
5 *14:4 0.00107859
6 *243:A1 *232:A_N 1.76557e-05
7 *243:A1 *232:B 7.53384e-06
8 *243:A1 *243:B1 0.00016376
9 *243:A1 *31:10 1.32939e-05
10 *14:25 *232:B 0.000195897
11 *14:25 *251:CLK 0
12 *14:25 *33:23 9.168e-05
13 clr_me *243:A1 1.24376e-05
14 *240:B *14:25 0
*RES
1 *232:Y *14:4 23 
2 *14:4 *243:A1 37.1479 
3 *14:4 *14:25 34.64 
4 *14:25 *233:B 23 
*END

*D_NET *15 0.00261229
*CONN
*I *236:B I *D sky130_fd_sc_hd__and3_1
*I *234:X O *D sky130_fd_sc_hd__or2_1
*CAP
1 *236:B 0.000315305
2 *234:X 0.000327211
3 *15:8 0.000642516
4 *236:B *17:8 0.000155092
5 *15:8 *234:B 0.000351513
6 *15:8 *239:B 0.000609764
7 *15:8 *36:12 9.6103e-05
8 *3:15 *236:B 0.000114785
9 *9:10 *236:B 0
*RES
1 *234:X *15:8 47.6736 
2 *15:8 *236:B 45.1879 
*END

*D_NET *16 0.00132165
*CONN
*I *236:C I *D sky130_fd_sc_hd__and3_1
*I *235:Y O *D sky130_fd_sc_hd__nand2_1
*CAP
1 *236:C 0.000324634
2 *235:Y 4.16351e-05
3 *16:8 0.000366269
4 *236:C *237:B1 0.0002263
5 *236:C *241:B 5.50049e-05
6 *16:8 *35:49 8.85189e-05
7 *16:8 *38:19 4.08641e-05
8 *13:82 *236:C 0.000178424
*RES
1 *235:Y *16:8 39.2014 
2 *16:8 *236:C 43.2511 
*END

*D_NET *17 0.00240788
*CONN
*I *239:B I *D sky130_fd_sc_hd__and3_1
*I *237:X O *D sky130_fd_sc_hd__a21o_1
*CAP
1 *239:B 0.000440967
2 *237:X 0.000369994
3 *17:8 0.000810961
4 *17:8 *234:B 0
5 *17:8 *27:27 2.11066e-05
6 *17:8 *36:8 0
7 *17:8 *37:10 0
8 *17:8 *37:21 0
9 *236:B *17:8 0.000155092
10 *15:8 *239:B 0.000609764
*RES
1 *237:X *17:8 44.8357 
2 *17:8 *239:B 44.815 
*END

*D_NET *18 0.00268898
*CONN
*I *240:C I *D sky130_fd_sc_hd__and3_1
*I *239:C I *D sky130_fd_sc_hd__and3_1
*I *238:Y O *D sky130_fd_sc_hd__nand3_1
*CAP
1 *240:C 0.000468629
2 *239:C 0.000193963
3 *238:Y 0.000203642
4 *18:10 0.000866234
5 *239:C *234:A 1.95448e-05
6 *239:C *24:36 6.25829e-05
7 *239:C *24:55 9.03784e-05
8 *240:C *233:A 6.04112e-05
9 *240:C *240:A 0.000228903
10 *240:C *251:CLK 1.72202e-05
11 *240:C *24:26 1.59094e-05
12 *240:C *24:36 2.03764e-06
13 *18:10 *255:A 7.43025e-06
14 *18:10 *24:55 7.6144e-05
15 *239:A *239:C 0.000153667
16 *239:A *18:10 3.83778e-05
17 *251:D *240:C 8.47188e-05
18 *3:15 *18:10 3.3577e-05
19 *10:8 *239:C 3.62219e-05
20 *13:63 *18:10 2.93845e-05
*RES
1 *238:Y *18:10 41.2521 
2 *18:10 *239:C 42.5986 
3 *18:10 *240:C 44.8979 
*END

*D_NET *19 0.00539391
*CONN
*I *244:B I *D sky130_fd_sc_hd__and2_1
*I *243:A2 I *D sky130_fd_sc_hd__o21ai_1
*I *241:X O *D sky130_fd_sc_hd__and4b_1
*CAP
1 *244:B 0
2 *243:A2 0
3 *241:X 0.00130075
4 *19:24 0.000402744
5 *19:16 0.00170349
6 *19:16 *242:A 0.000274234
7 *19:16 *242:B 5.3304e-05
8 *19:16 *242:C_N 0.000128674
9 *19:16 *249:RESET_B 9.18637e-05
10 *19:16 *33:36 0.000443686
11 *19:16 *35:6 1.73399e-05
12 *19:24 *242:C_N 0.000185434
13 *19:24 *246:A2 0.000122407
14 *19:24 *22:24 0
15 *19:24 *26:8 0.000113017
16 *19:24 *31:10 0
17 *19:24 *32:22 0
18 *244:A *19:16 5.90675e-06
19 *249:D *19:16 0.000144403
20 *13:14 *19:16 0.000143869
21 *13:14 *19:24 4.95081e-05
22 *13:22 *19:24 0.000213273
*RES
1 *241:X *19:16 47.1943 
2 *19:16 *19:24 40.8957 
3 *19:24 *243:A2 23 
4 *19:16 *244:B 23 
*END

*D_NET *20 0.00200262
*CONN
*I *243:B1 I *D sky130_fd_sc_hd__o21ai_1
*I *242:X O *D sky130_fd_sc_hd__or3b_1
*CAP
1 *243:B1 0.000395102
2 *242:X 0.00033022
3 *20:8 0.000725321
4 *243:B1 *31:10 0.000143655
5 *20:8 *230:A 0.000166522
6 *20:8 *22:16 7.80354e-05
7 *243:A1 *243:B1 0.00016376
*RES
1 *242:X *20:8 44.8357 
2 *20:8 *243:B1 45.4779 
*END

*D_NET *21 0.00349041
*CONN
*I *255:A I *D sky130_fd_sc_hd__clkbuf_16
*I *254:A I *D sky130_fd_sc_hd__clkbuf_16
*I *253:X O *D sky130_fd_sc_hd__clkbuf_16
*CAP
1 *255:A 0.000267356
2 *254:A 0.000329056
3 *253:X 0
4 *21:4 0.000596412
5 *254:A *246:C1 0.000264564
6 *254:A *23:8 0.000159228
7 *254:A *27:27 4.2573e-05
8 *255:A *23:8 0.001041
9 *3:15 *255:A 0.000451059
10 *13:63 *254:A 2.97326e-05
11 *13:63 *255:A 0.000302003
12 *18:10 *255:A 7.43025e-06
*RES
1 *253:X *21:4 23 
2 *21:4 *254:A 30.3329 
3 *21:4 *255:A 35.4286 
*END

*D_NET *22 0.00358697
*CONN
*I *252:CLK I *D sky130_fd_sc_hd__dfrtp_1
*I *247:CLK I *D sky130_fd_sc_hd__dfrtp_1
*I *248:CLK I *D sky130_fd_sc_hd__dfrtp_1
*I *254:X O *D sky130_fd_sc_hd__clkbuf_16
*CAP
1 *252:CLK 0.000484896
2 *247:CLK 0
3 *248:CLK 0
4 *254:X 4.66791e-05
5 *22:24 0.000149422
6 *22:16 0.000511471
7 *22:8 0.000893624
8 *252:CLK *230:A 0.000111852
9 *252:CLK *231:A_N 0.000141954
10 *252:CLK *231:B 0.000334627
11 *22:8 *246:C1 2.93335e-05
12 *22:16 *230:A 8.72173e-05
13 *22:16 *247:D 6.96783e-05
14 *22:24 *247:D 5.56356e-05
15 *22:24 *26:8 0
16 *22:24 *31:10 0.000139647
17 *22:24 *32:22 0.000186925
18 *13:14 *252:CLK 9.70425e-05
19 *13:40 *252:CLK 0.000168927
20 *19:24 *22:24 0
21 *20:8 *22:16 7.80354e-05
*RES
1 *254:X *22:8 38.6214 
2 *22:8 *22:16 21.815 
3 *22:16 *22:24 33.5836 
4 *22:24 *248:CLK 23 
5 *22:16 *247:CLK 23 
6 *22:8 *252:CLK 49.5379 
*END

*D_NET *23 0.00668997
*CONN
*I *250:CLK I *D sky130_fd_sc_hd__dfrtp_1
*I *249:CLK I *D sky130_fd_sc_hd__dfrtp_1
*I *251:CLK I *D sky130_fd_sc_hd__dfrtp_1
*I *255:X O *D sky130_fd_sc_hd__clkbuf_16
*CAP
1 *250:CLK 0
2 *249:CLK 9.20222e-05
3 *251:CLK 0.00026431
4 *255:X 0
5 *23:36 0.000255431
6 *23:8 0.00173582
7 *23:4 0.00163492
8 *251:CLK *233:A 0.000269781
9 *251:CLK *240:A 5.67058e-05
10 *251:CLK *24:36 0.000186912
11 *251:CLK *27:27 2.31209e-05
12 *251:CLK *33:23 0
13 *23:8 *246:C1 6.17437e-06
14 *23:8 *27:27 2.64616e-05
15 *23:8 *27:37 0.000568892
16 *23:36 *27:37 8.52481e-05
17 *240:B *251:CLK 0
18 *240:C *251:CLK 1.72202e-05
19 *254:A *23:8 0.000159228
20 *255:A *23:8 0.001041
21 *3:15 *23:8 9.24795e-06
22 *9:10 *23:36 9.00542e-05
23 *11:10 *249:CLK 6.32792e-05
24 *11:10 *251:CLK 0.000104133
25 *13:40 *249:CLK 0
26 *13:40 *251:CLK 0
27 *14:25 *251:CLK 0
*RES
1 *255:X *23:4 23 
2 *23:4 *23:8 36.5843 
3 *23:8 *251:CLK 45.6229 
4 *23:8 *249:CLK 39.9057 
5 *23:4 *23:36 34.7643 
6 *23:36 *250:CLK 23 
*END

*D_NET *24 0.0106309
*CONN
*I *251:RESET_B I *D sky130_fd_sc_hd__dfrtp_1
*I *252:RESET_B I *D sky130_fd_sc_hd__dfrtp_1
*I *249:RESET_B I *D sky130_fd_sc_hd__dfrtp_1
*I *247:RESET_B I *D sky130_fd_sc_hd__dfrtp_1
*I *248:RESET_B I *D sky130_fd_sc_hd__dfrtp_1
*I *250:RESET_B I *D sky130_fd_sc_hd__dfrtp_1
*I *259:X O *D sky130_fd_sc_hd__clkbuf_2
*CAP
1 *251:RESET_B 2.00578e-05
2 *252:RESET_B 0.000284635
3 *249:RESET_B 3.92036e-05
4 *247:RESET_B 3.66911e-05
5 *248:RESET_B 0.000189891
6 *250:RESET_B 0.00017324
7 *259:X 0.000157079
8 *24:55 0.000643639
9 *24:36 0.00106829
10 *24:26 0.00132984
11 *24:22 0.000856248
12 *24:12 0.00262697
13 *24:8 0.00194294
14 *247:RESET_B *233:A 0
15 *248:RESET_B *232:B 0
16 *248:RESET_B *34:19 0
17 *252:RESET_B *235:A 0
18 *252:RESET_B *28:10 0.00014196
19 *252:RESET_B *35:59 1.01436e-05
20 *252:RESET_B *38:6 0.000185428
21 *24:22 *37:10 2.30292e-05
22 *24:36 *233:A 5.29672e-05
23 *24:36 *240:A 3.58358e-05
24 *24:55 *235:A 0
25 *24:55 *28:10 0
26 *24:55 *36:32 0
27 *239:A *24:55 1.11421e-05
28 *239:C *24:36 6.25829e-05
29 *239:C *24:55 9.03784e-05
30 *240:C *24:26 1.59094e-05
31 *240:C *24:36 2.03764e-06
32 *250:D *24:22 8.82053e-06
33 *251:CLK *24:36 0.000186912
34 *251:D *24:36 0.000153145
35 *10:8 *24:36 6.25829e-05
36 *13:63 *24:55 1.09783e-05
37 *13:82 *24:55 4.03181e-05
38 *18:10 *24:55 7.6144e-05
39 *19:16 *249:RESET_B 9.18637e-05
*RES
1 *259:X *24:8 40.9621 
2 *24:8 *24:12 45.6364 
3 *24:12 *250:RESET_B 4.36036 
4 *24:12 *24:22 12.905 
5 *24:22 *24:26 17.5271 
6 *24:26 *24:36 29.9764 
7 *24:36 *248:RESET_B 33.2314 
8 *24:36 *247:RESET_B 0.776786 
9 *24:26 *24:55 6.48357 
10 *24:55 *249:RESET_B 16.0254 
11 *24:55 *252:RESET_B 21.1418 
12 *24:22 *251:RESET_B 0.424643 
*END

*D_NET *25 0.00294122
*CONN
*I *242:C_N I *D sky130_fd_sc_hd__or3b_1
*I *246:A2 I *D sky130_fd_sc_hd__a211oi_1
*I *260:X O *D sky130_fd_sc_hd__clkbuf_1
*CAP
1 *242:C_N 0.000172553
2 *246:A2 0.000175637
3 *260:X 0.000801645
4 *25:10 0.000450705
5 *25:8 0.00090416
6 *246:A2 *32:22 0
7 *13:14 *246:A2 0
8 *13:14 *25:10 0
9 *19:16 *242:C_N 0.000128674
10 *19:24 *242:C_N 0.000185434
11 *19:24 *246:A2 0.000122407
*RES
1 *260:X *25:8 48.6264 
2 *25:8 *25:10 1.55357 
3 *25:10 *246:A2 41.6664 
4 *25:10 *242:C_N 42.1221 
*END

*D_NET *26 0.00067341
*CONN
*I *261:A I *D sky130_fd_sc_hd__buf_2
*I *246:Y O *D sky130_fd_sc_hd__a211oi_1
*CAP
1 *261:A 2.54164e-05
2 *246:Y 0.000238636
3 *26:8 0.000264053
4 clr_me *261:A 3.22879e-05
5 *19:24 *26:8 0.000113017
6 *22:24 *26:8 0
*RES
1 *246:Y *26:8 43.4271 
2 *26:8 *261:A 38.6214 
*END

*D_NET *27 0.0124834
*CONN
*I *262:A I *D sky130_fd_sc_hd__buf_2
*I *246:C1 I *D sky130_fd_sc_hd__a211oi_1
*I *245:X O *D sky130_fd_sc_hd__and2b_1
*CAP
1 *262:A 0
2 *246:C1 0.000776112
3 *245:X 0
4 *27:43 0.000296268
5 *27:37 0.00321153
6 *27:27 0.00424348
7 *27:4 0.00210434
8 *246:C1 *230:A 0.000358904
9 *246:C1 *245:B 0.000221997
10 frame_done *27:43 1.27424e-05
11 *246:A1 *246:C1 7.59964e-05
12 *251:CLK *27:27 2.31209e-05
13 *254:A *246:C1 0.000264564
14 *254:A *27:27 4.2573e-05
15 *3:15 *27:37 0.00011451
16 *17:8 *27:27 2.11066e-05
17 *22:8 *246:C1 2.93335e-05
18 *23:8 *246:C1 6.17437e-06
19 *23:8 *27:27 2.64616e-05
20 *23:8 *27:37 0.000568892
21 *23:36 *27:37 8.52481e-05
*RES
1 *245:X *27:4 23 
2 *27:4 *246:C1 39.3436 
3 *27:4 *27:27 49.9814 
4 *27:27 *27:37 48.3471 
5 *27:37 *27:43 35.7793 
6 *27:43 *262:A 23 
*END

*D_NET *28 0.00164375
*CONN
*I *240:A I *D sky130_fd_sc_hd__and3_1
*I *256:X O *D sky130_fd_sc_hd__dlygate4sd3_1
*CAP
1 *240:A 4.09173e-05
2 *256:X 0.000533109
3 *28:10 0.000574027
4 *28:10 *29:10 0
5 *240:C *240:A 0.000228903
6 *251:CLK *240:A 5.67058e-05
7 *251:D *240:A 3.22879e-05
8 *252:RESET_B *28:10 0.00014196
9 *24:36 *240:A 3.58358e-05
10 *24:55 *28:10 0
*RES
1 *256:X *28:10 47.1143 
2 *28:10 *240:A 40.5271 
*END

*D_NET *29 0.00259556
*CONN
*I *233:A I *D sky130_fd_sc_hd__nor2_1
*I *257:X O *D sky130_fd_sc_hd__dlygate4sd3_1
*CAP
1 *233:A 0.000139591
2 *257:X 0.000587216
3 *29:10 0.000726807
4 *240:B *29:10 0.000108681
5 *240:C *233:A 6.04112e-05
6 *247:RESET_B *233:A 0
7 *251:CLK *233:A 0.000269781
8 *11:10 *233:A 0.000228001
9 *11:10 *29:10 0
10 *13:40 *29:10 0.000422107
11 *24:36 *233:A 5.29672e-05
12 *28:10 *29:10 0
*RES
1 *257:X *29:10 49.1029 
2 *29:10 *233:A 42.93 
*END

*D_NET *30 0.000525126
*CONN
*I *242:A I *D sky130_fd_sc_hd__or3b_1
*I *258:X O *D sky130_fd_sc_hd__dlygate4sd3_1
*CAP
1 *242:A 0.000125446
2 *258:X 0.000125446
3 *19:16 *242:A 0.000274234
*RES
1 *258:X *242:A 49.0036 
*END

*D_NET *31 0.00113417
*CONN
*I *247:D I *D sky130_fd_sc_hd__dfrtp_1
*I *243:Y O *D sky130_fd_sc_hd__o21ai_1
*CAP
1 *247:D 0.000155635
2 *243:Y 0.000200495
3 *31:10 0.00035613
4 *243:A1 *31:10 1.32939e-05
5 *243:B1 *31:10 0.000143655
6 *19:24 *31:10 0
7 *22:16 *247:D 6.96783e-05
8 *22:24 *247:D 5.56356e-05
9 *22:24 *31:10 0.000139647
*RES
1 *243:Y *31:10 41.9564 
2 *31:10 *247:D 40.5271 
*END

*D_NET *32 0.00141168
*CONN
*I *248:D I *D sky130_fd_sc_hd__dfrtp_1
*I *244:X O *D sky130_fd_sc_hd__and2_1
*CAP
1 *248:D 0
2 *244:X 0.000584563
3 *32:22 0.000584563
4 *246:A2 *32:22 0
5 *13:14 *32:22 5.56336e-05
6 *19:24 *32:22 0
7 *22:24 *32:22 0.000186925
*RES
1 *244:X *32:22 48.9371 
2 *32:22 *248:D 38 
*END

*D_NET *33 0.00521908
*CONN
*I *231:B I *D sky130_fd_sc_hd__and2b_1
*I *230:A I *D sky130_fd_sc_hd__inv_2
*I *242:B I *D sky130_fd_sc_hd__or3b_1
*I *245:A_N I *D sky130_fd_sc_hd__and2b_1
*I *232:B I *D sky130_fd_sc_hd__nand2b_1
*I *247:Q O *D sky130_fd_sc_hd__dfrtp_1
*CAP
1 *231:B 0.000292638
2 *230:A 0.000250661
3 *242:B 6.44349e-05
4 *245:A_N 0
5 *232:B 0.000141616
6 *247:Q 0
7 *33:47 0.000543298
8 *33:36 0.000458371
9 *33:23 0.000522183
10 *33:6 0.000269862
11 *232:B *232:A_N 0.000110053
12 *232:B *34:19 8.85189e-05
13 *33:23 *34:19 0.000221136
14 *33:36 *34:19 3.82852e-05
15 *33:36 *34:30 6.7911e-05
16 *243:A1 *232:B 7.53384e-06
17 *246:C1 *230:A 0.000358904
18 *248:RESET_B *232:B 0
19 *251:CLK *33:23 0
20 *252:CLK *230:A 0.000111852
21 *252:CLK *231:B 0.000334627
22 *8:8 *33:23 8.30946e-05
23 *8:8 *33:36 0.000215791
24 *14:25 *232:B 0.000195897
25 *14:25 *33:23 9.168e-05
26 *19:16 *242:B 5.3304e-05
27 *19:16 *33:36 0.000443686
28 *20:8 *230:A 0.000166522
29 *22:16 *230:A 8.72173e-05
*RES
1 *247:Q *33:6 38 
2 *33:6 *232:B 41.5111 
3 *33:6 *33:23 4.08071 
4 *33:23 *245:A_N 38 
5 *33:23 *33:36 24.3007 
6 *33:36 *242:B 24.1186 
7 *33:36 *33:47 15 
8 *33:47 *230:A 44.5664 
9 *33:47 *231:B 44.0693 
*END

*D_NET *34 0.00276159
*CONN
*I *231:A_N I *D sky130_fd_sc_hd__and2b_1
*I *258:A I *D sky130_fd_sc_hd__dlygate4sd3_1
*I *245:B I *D sky130_fd_sc_hd__and2b_1
*I *232:A_N I *D sky130_fd_sc_hd__nand2b_1
*I *248:Q O *D sky130_fd_sc_hd__dfrtp_1
*CAP
1 *231:A_N 0.000187225
2 *258:A 0
3 *245:B 0.000141294
4 *232:A_N 0.000187602
5 *248:Q 0
6 *34:30 0.000293497
7 *34:19 0.000481235
8 *34:4 0.000421272
9 *232:B *232:A_N 0.000110053
10 *232:B *34:19 8.85189e-05
11 *243:A1 *232:A_N 1.76557e-05
12 *246:C1 *245:B 0.000221997
13 *248:RESET_B *34:19 0
14 *252:CLK *231:A_N 0.000141954
15 *11:10 *231:A_N 0
16 *11:10 *34:30 0
17 *13:40 *231:A_N 0.000141954
18 *33:23 *34:19 0.000221136
19 *33:36 *34:19 3.82852e-05
20 *33:36 *34:30 6.7911e-05
*RES
1 *248:Q *34:4 23 
2 *34:4 *232:A_N 26.8736 
3 *34:4 *34:19 20.4271 
4 *34:19 *245:B 40.5271 
5 *34:19 *34:30 2.25786 
6 *34:30 *258:A 38 
7 *34:30 *231:A_N 42.1843 
*END

*D_NET *35 0.00526147
*CONN
*I *237:A2 I *D sky130_fd_sc_hd__a21o_1
*I *235:B I *D sky130_fd_sc_hd__nand2_1
*I *257:A I *D sky130_fd_sc_hd__dlygate4sd3_1
*I *238:B I *D sky130_fd_sc_hd__nand3_1
*I *234:B I *D sky130_fd_sc_hd__or2_1
*I *241:D I *D sky130_fd_sc_hd__and4b_1
*I *249:Q O *D sky130_fd_sc_hd__dfrtp_1
*CAP
1 *237:A2 0
2 *235:B 0
3 *257:A 0
4 *238:B 0
5 *234:B 0.000399325
6 *241:D 2.34823e-05
7 *249:Q 6.83323e-05
8 *35:77 0.000103577
9 *35:59 0.000360619
10 *35:49 0.000529818
11 *35:19 0.000517489
12 *35:17 0.000287363
13 *35:15 0.000148711
14 *35:6 0.000136948
15 *234:B *234:A 0.000397596
16 *234:B *36:8 0
17 *234:B *36:12 5.50106e-05
18 *234:B *36:23 0.000400886
19 *234:B *36:32 1.14452e-05
20 *234:B *37:10 7.28526e-05
21 *241:D *237:A1 0
22 *35:15 *237:A1 5.3304e-05
23 *35:19 *36:32 0.000169196
24 *35:19 *37:10 6.07611e-06
25 *35:19 *37:21 7.39052e-05
26 *35:49 *235:A 0.000182915
27 *35:49 *36:32 2.46345e-05
28 *35:49 *37:21 4.18957e-05
29 *35:49 *38:19 2.06738e-05
30 *35:59 *38:6 9.84851e-05
31 *35:59 *38:19 8.52481e-05
32 *35:77 *237:A1 0.000181131
33 *35:77 *37:21 2.35393e-05
34 *35:77 *38:19 1.14452e-05
35 *252:RESET_B *35:59 1.01436e-05
36 *13:82 *35:6 4.31969e-05
37 *13:82 *35:15 9.44537e-05
38 *13:82 *35:77 0.000170394
39 *15:8 *234:B 0.000351513
40 *16:8 *35:49 8.85189e-05
41 *17:8 *234:B 0
42 *19:16 *35:6 1.73399e-05
*RES
1 *249:Q *35:6 24.4448 
2 *35:6 *241:D 23.4971 
3 *35:6 *35:15 1.22732 
4 *35:15 *35:17 15 
5 *35:17 *35:19 2.61 
6 *35:19 *234:B 49.7864 
7 *35:19 *238:B 38 
8 *35:17 *35:49 19.2257 
9 *35:49 *35:59 37.0636 
10 *35:59 *257:A 23 
11 *35:49 *235:B 23 
12 *35:15 *35:77 32.9 
13 *35:77 *237:A2 23 
*END

*D_NET *36 0.00429487
*CONN
*I *235:A I *D sky130_fd_sc_hd__nand2_1
*I *237:A1 I *D sky130_fd_sc_hd__a21o_1
*I *241:C I *D sky130_fd_sc_hd__and4b_1
*I *238:A I *D sky130_fd_sc_hd__nand3_1
*I *234:A I *D sky130_fd_sc_hd__or2_1
*I *250:Q O *D sky130_fd_sc_hd__dfrtp_1
*CAP
1 *235:A 0.000239472
2 *237:A1 0.000120385
3 *241:C 0
4 *238:A 0
5 *234:A 0.000164691
6 *250:Q 0.000145105
7 *36:34 0.000120385
8 *36:32 0.000370706
9 *36:23 0.000339033
10 *36:12 0.000468624
11 *36:8 0.000241237
12 *235:A *38:19 5.67058e-05
13 *237:A1 *237:B1 7.41678e-05
14 *237:A1 *241:B 5.12254e-05
15 *234:B *234:A 0.000397596
16 *234:B *36:8 0
17 *234:B *36:12 5.50106e-05
18 *234:B *36:23 0.000400886
19 *234:B *36:32 1.14452e-05
20 *239:A *36:23 0.000200785
21 *239:C *234:A 1.95448e-05
22 *241:D *237:A1 0
23 *252:RESET_B *235:A 0
24 *13:82 *237:A1 3.44746e-05
25 *13:82 *36:23 1.34542e-05
26 *13:82 *36:32 6.26566e-05
27 *15:8 *36:12 9.6103e-05
28 *17:8 *36:8 0
29 *24:55 *235:A 0
30 *24:55 *36:32 0
31 *35:15 *237:A1 5.3304e-05
32 *35:19 *36:32 0.000169196
33 *35:49 *235:A 0.000182915
34 *35:49 *36:32 2.46345e-05
35 *35:77 *237:A1 0.000181131
*RES
1 *250:Q *36:8 40.2579 
2 *36:8 *36:12 17.5271 
3 *36:12 *234:A 27.4329 
4 *36:12 *36:23 20.7793 
5 *36:23 *238:A 38 
6 *36:23 *36:32 2.96214 
7 *36:32 *36:34 15 
8 *36:34 *241:C 23 
9 *36:34 *237:A1 26.5007 
10 *36:32 *235:A 42.205 
*END

*D_NET *37 0.00164199
*CONN
*I *237:B1 I *D sky130_fd_sc_hd__a21o_1
*I *241:B I *D sky130_fd_sc_hd__and4b_1
*I *238:C I *D sky130_fd_sc_hd__nand3_1
*I *251:Q O *D sky130_fd_sc_hd__dfrtp_1
*CAP
1 *237:B1 7.08867e-05
2 *241:B 4.76956e-05
3 *238:C 0
4 *251:Q 0.00012433
5 *37:21 0.000321299
6 *37:10 0.000327047
7 *37:21 *38:19 3.70094e-05
8 *234:B *37:10 7.28526e-05
9 *236:C *237:B1 0.0002263
10 *236:C *241:B 5.50049e-05
11 *237:A1 *237:B1 7.41678e-05
12 *237:A1 *241:B 5.12254e-05
13 *13:82 *237:B1 6.57264e-05
14 *17:8 *37:10 0
15 *17:8 *37:21 0
16 *24:22 *37:10 2.30292e-05
17 *35:19 *37:10 6.07611e-06
18 *35:19 *37:21 7.39052e-05
19 *35:49 *37:21 4.18957e-05
20 *35:77 *37:21 2.35393e-05
*RES
1 *251:Q *37:10 40.5271 
2 *37:10 *238:C 38 
3 *37:10 *37:21 18.6664 
4 *37:21 *241:B 24.0979 
5 *37:21 *237:B1 26.0243 
*END

*D_NET *38 0.00141532
*CONN
*I *241:A_N I *D sky130_fd_sc_hd__and4b_1
*I *256:A I *D sky130_fd_sc_hd__dlygate4sd3_1
*I *252:Q O *D sky130_fd_sc_hd__dfrtp_1
*CAP
1 *241:A_N 0
2 *256:A 0
3 *252:Q 0.000141847
4 *38:19 0.000297883
5 *38:6 0.00043973
6 *235:A *38:19 5.67058e-05
7 *252:RESET_B *38:6 0.000185428
8 *16:8 *38:19 4.08641e-05
9 *35:49 *38:19 2.06738e-05
10 *35:59 *38:6 9.84851e-05
11 *35:59 *38:19 8.52481e-05
12 *35:77 *38:19 1.14452e-05
13 *37:21 *38:19 3.70094e-05
*RES
1 *252:Q *38:6 26.48 
2 *38:6 *256:A 23 
3 *38:6 *38:19 35.9657 
4 *38:19 *241:A_N 23 
*END
