*SPEF "ieee 1481-1999"
*DESIGN "Survivor_Memory_Unit"
*DATE "18:01:22 Wednesday January 21, 2026"
*VENDOR "The OpenROAD Project"
*PROGRAM "OpenROAD"
*VERSION "edf00dff99f6c40d67a30c0e22a8191c5d2ed9d6"
*DESIGN_FLOW "NAME_SCOPE LOCAL" "PIN_CAP NONE"
*DIVIDER /
*DELIMITER :
*BUS_DELIMITER []
*T_UNIT 1 NS
*C_UNIT 1 PF
*R_UNIT 1 OHM
*L_UNIT 1 HENRY

*NAME_MAP
*3 clk
*4 decoded_out[0]
*5 decoded_out[1]
*6 decoded_out[2]
*7 decoded_out[3]
*8 decoded_out[4]
*9 decoded_out[5]
*10 decoded_out[6]
*11 decoded_out[7]
*12 rst_n
*13 survivor_select_00
*14 survivor_select_01
*15 survivor_select_10
*16 survivor_select_11
*17 winner_state[0]
*18 winner_state[1]
*19 Output_Select_Inst\.decode_path_00\[2\]
*20 Output_Select_Inst\.decode_path_00\[3\]
*21 Output_Select_Inst\.decode_path_00\[4\]
*22 Output_Select_Inst\.decode_path_00\[5\]
*23 Output_Select_Inst\.decode_path_00\[6\]
*24 Output_Select_Inst\.decode_path_00\[7\]
*25 Output_Select_Inst\.decode_path_01\[1\]
*26 Output_Select_Inst\.decode_path_01\[2\]
*27 Output_Select_Inst\.decode_path_01\[3\]
*28 Output_Select_Inst\.decode_path_01\[4\]
*29 Output_Select_Inst\.decode_path_01\[5\]
*30 Output_Select_Inst\.decode_path_01\[6\]
*31 Output_Select_Inst\.decode_path_01\[7\]
*32 Output_Select_Inst\.decode_path_10\[0\]
*33 Output_Select_Inst\.decode_path_10\[2\]
*34 Output_Select_Inst\.decode_path_10\[3\]
*35 Output_Select_Inst\.decode_path_10\[4\]
*36 Output_Select_Inst\.decode_path_10\[5\]
*37 Output_Select_Inst\.decode_path_10\[6\]
*38 Output_Select_Inst\.decode_path_10\[7\]
*39 Output_Select_Inst\.decode_path_11\[2\]
*40 Output_Select_Inst\.decode_path_11\[3\]
*41 Output_Select_Inst\.decode_path_11\[4\]
*42 Output_Select_Inst\.decode_path_11\[5\]
*43 Output_Select_Inst\.decode_path_11\[6\]
*44 Output_Select_Inst\.decode_path_11\[7\]
*45 Reg_Exchange_Inst\.next_00\[2\]
*46 Reg_Exchange_Inst\.next_00\[3\]
*47 Reg_Exchange_Inst\.next_00\[4\]
*48 Reg_Exchange_Inst\.next_00\[5\]
*49 Reg_Exchange_Inst\.next_00\[6\]
*50 Reg_Exchange_Inst\.next_00\[7\]
*51 Reg_Exchange_Inst\.next_01\[2\]
*52 Reg_Exchange_Inst\.next_01\[3\]
*53 Reg_Exchange_Inst\.next_01\[4\]
*54 Reg_Exchange_Inst\.next_01\[5\]
*55 Reg_Exchange_Inst\.next_01\[6\]
*56 Reg_Exchange_Inst\.next_01\[7\]
*57 Reg_Exchange_Inst\.next_10\[2\]
*58 Reg_Exchange_Inst\.next_10\[3\]
*59 Reg_Exchange_Inst\.next_10\[4\]
*60 Reg_Exchange_Inst\.next_10\[5\]
*61 Reg_Exchange_Inst\.next_10\[6\]
*62 Reg_Exchange_Inst\.next_10\[7\]
*63 Reg_Exchange_Inst\.next_11\[2\]
*64 Reg_Exchange_Inst\.next_11\[3\]
*65 Reg_Exchange_Inst\.next_11\[4\]
*66 Reg_Exchange_Inst\.next_11\[5\]
*67 Reg_Exchange_Inst\.next_11\[6\]
*68 Reg_Exchange_Inst\.next_11\[7\]
*69 _000_
*70 _001_
*71 _002_
*72 _003_
*73 _004_
*74 _005_
*75 _006_
*76 _007_
*77 _008_
*78 _009_
*79 _010_
*80 _011_
*81 _012_
*82 _013_
*83 _014_
*84 _015_
*85 _016_
*86 _017_
*87 _018_
*88 _019_
*89 _020_
*90 _021_
*91 _022_
*92 _023_
*93 _024_
*94 _025_
*95 _026_
*96 _027_
*97 _028_
*98 clknet_0_clk
*99 clknet_2_0__leaf_clk
*100 clknet_2_1__leaf_clk
*101 clknet_2_2__leaf_clk
*102 clknet_2_3__leaf_clk
*103 net1
*104 net10
*105 net11
*106 net12
*107 net13
*108 net14
*109 net15
*110 net16
*111 net17
*112 net18
*113 net19
*114 net2
*115 net20
*116 net21
*117 net22
*118 net23
*119 net24
*120 net25
*121 net26
*122 net27
*123 net28
*124 net29
*125 net3
*126 net30
*127 net31
*128 net32
*129 net33
*130 net34
*131 net35
*132 net36
*133 net37
*134 net38
*135 net39
*136 net4
*137 net40
*138 net41
*139 net42
*140 net43
*141 net44
*142 net45
*143 net46
*144 net47
*145 net48
*146 net49
*147 net5
*148 net50
*149 net51
*150 net52
*151 net53
*152 net54
*153 net55
*154 net56
*155 net57
*156 net58
*157 net59
*158 net6
*159 net60
*160 net7
*161 net8
*162 net9
*163 FILLER_0_15
*164 FILLER_0_24
*165 FILLER_0_29
*166 FILLER_0_3
*167 FILLER_0_41
*168 FILLER_0_53
*169 FILLER_0_57
*170 FILLER_0_69
*171 FILLER_0_81
*172 FILLER_0_85
*173 FILLER_0_89
*174 FILLER_0_97
*175 FILLER_10_101
*176 FILLER_10_19
*177 FILLER_10_34
*178 FILLER_10_7
*179 FILLER_10_82
*180 FILLER_10_93
*181 FILLER_11_15
*182 FILLER_11_21
*183 FILLER_11_3
*184 FILLER_11_99
*185 FILLER_12_15
*186 FILLER_12_27
*187 FILLER_12_29
*188 FILLER_12_3
*189 FILLER_12_57
*190 FILLER_12_83
*191 FILLER_12_97
*192 FILLER_13_102
*193 FILLER_13_15
*194 FILLER_13_27
*195 FILLER_13_3
*196 FILLER_13_57
*197 FILLER_13_94
*198 FILLER_14_15
*199 FILLER_14_27
*200 FILLER_14_29
*201 FILLER_14_3
*202 FILLER_14_99
*203 FILLER_15_15
*204 FILLER_15_27
*205 FILLER_15_3
*206 FILLER_15_66
*207 FILLER_15_78
*208 FILLER_15_99
*209 FILLER_16_15
*210 FILLER_16_27
*211 FILLER_16_29
*212 FILLER_16_3
*213 FILLER_16_78
*214 FILLER_16_85
*215 FILLER_16_97
*216 FILLER_17_15
*217 FILLER_17_27
*218 FILLER_17_3
*219 FILLER_17_57
*220 FILLER_17_80
*221 FILLER_17_92
*222 FILLER_17_98
*223 FILLER_18_15
*224 FILLER_18_19
*225 FILLER_18_29
*226 FILLER_18_3
*227 FILLER_18_58
*228 FILLER_18_80
*229 FILLER_18_85
*230 FILLER_18_97
*231 FILLER_19_101
*232 FILLER_19_19
*233 FILLER_19_23
*234 FILLER_19_52
*235 FILLER_19_7
*236 FILLER_19_73
*237 FILLER_1_19
*238 FILLER_1_31
*239 FILLER_1_43
*240 FILLER_1_55
*241 FILLER_1_57
*242 FILLER_1_69
*243 FILLER_1_7
*244 FILLER_1_81
*245 FILLER_20_102
*246 FILLER_20_15
*247 FILLER_20_29
*248 FILLER_20_3
*249 FILLER_21_15
*250 FILLER_21_3
*251 FILLER_21_55
*252 FILLER_22_101
*253 FILLER_22_15
*254 FILLER_22_27
*255 FILLER_22_29
*256 FILLER_22_3
*257 FILLER_22_61
*258 FILLER_23_15
*259 FILLER_23_3
*260 FILLER_23_66
*261 FILLER_24_100
*262 FILLER_24_15
*263 FILLER_24_27
*264 FILLER_24_29
*265 FILLER_24_3
*266 FILLER_25_15
*267 FILLER_25_27
*268 FILLER_25_3
*269 FILLER_25_35
*270 FILLER_25_45
*271 FILLER_25_77
*272 FILLER_26_15
*273 FILLER_26_27
*274 FILLER_26_29
*275 FILLER_26_3
*276 FILLER_26_41
*277 FILLER_26_47
*278 FILLER_26_70
*279 FILLER_26_80
*280 FILLER_26_85
*281 FILLER_26_93
*282 FILLER_27_19
*283 FILLER_27_27
*284 FILLER_27_29
*285 FILLER_27_41
*286 FILLER_27_53
*287 FILLER_27_57
*288 FILLER_27_65
*289 FILLER_27_7
*290 FILLER_27_80
*291 FILLER_27_85
*292 FILLER_27_89
*293 FILLER_27_97
*294 FILLER_2_15
*295 FILLER_2_27
*296 FILLER_2_29
*297 FILLER_2_3
*298 FILLER_2_41
*299 FILLER_2_53
*300 FILLER_2_65
*301 FILLER_2_77
*302 FILLER_2_83
*303 FILLER_2_85
*304 FILLER_2_97
*305 FILLER_3_15
*306 FILLER_3_27
*307 FILLER_3_3
*308 FILLER_3_39
*309 FILLER_3_51
*310 FILLER_3_55
*311 FILLER_3_57
*312 FILLER_3_80
*313 FILLER_4_15
*314 FILLER_4_27
*315 FILLER_4_29
*316 FILLER_4_3
*317 FILLER_4_97
*318 FILLER_5_102
*319 FILLER_5_15
*320 FILLER_5_3
*321 FILLER_5_55
*322 FILLER_6_15
*323 FILLER_6_27
*324 FILLER_6_29
*325 FILLER_6_3
*326 FILLER_6_53
*327 FILLER_6_77
*328 FILLER_6_91
*329 FILLER_7_15
*330 FILLER_7_21
*331 FILLER_7_3
*332 FILLER_7_57
*333 FILLER_7_91
*334 FILLER_8_29
*335 FILLER_8_3
*336 FILLER_8_38
*337 FILLER_8_69
*338 FILLER_8_7
*339 FILLER_8_82
*340 FILLER_8_93
*341 FILLER_9_102
*342 FILLER_9_15
*343 FILLER_9_23
*344 FILLER_9_3
*345 FILLER_9_52
*346 FILLER_9_94
*347 PHY_EDGE_ROW_0_Left_28
*348 PHY_EDGE_ROW_0_Right_0
*349 PHY_EDGE_ROW_10_Left_38
*350 PHY_EDGE_ROW_10_Right_10
*351 PHY_EDGE_ROW_11_Left_39
*352 PHY_EDGE_ROW_11_Right_11
*353 PHY_EDGE_ROW_12_Left_40
*354 PHY_EDGE_ROW_12_Right_12
*355 PHY_EDGE_ROW_13_Left_41
*356 PHY_EDGE_ROW_13_Right_13
*357 PHY_EDGE_ROW_14_Left_42
*358 PHY_EDGE_ROW_14_Right_14
*359 PHY_EDGE_ROW_15_Left_43
*360 PHY_EDGE_ROW_15_Right_15
*361 PHY_EDGE_ROW_16_Left_44
*362 PHY_EDGE_ROW_16_Right_16
*363 PHY_EDGE_ROW_17_Left_45
*364 PHY_EDGE_ROW_17_Right_17
*365 PHY_EDGE_ROW_18_Left_46
*366 PHY_EDGE_ROW_18_Right_18
*367 PHY_EDGE_ROW_19_Left_47
*368 PHY_EDGE_ROW_19_Right_19
*369 PHY_EDGE_ROW_1_Left_29
*370 PHY_EDGE_ROW_1_Right_1
*371 PHY_EDGE_ROW_20_Left_48
*372 PHY_EDGE_ROW_20_Right_20
*373 PHY_EDGE_ROW_21_Left_49
*374 PHY_EDGE_ROW_21_Right_21
*375 PHY_EDGE_ROW_22_Left_50
*376 PHY_EDGE_ROW_22_Right_22
*377 PHY_EDGE_ROW_23_Left_51
*378 PHY_EDGE_ROW_23_Right_23
*379 PHY_EDGE_ROW_24_Left_52
*380 PHY_EDGE_ROW_24_Right_24
*381 PHY_EDGE_ROW_25_Left_53
*382 PHY_EDGE_ROW_25_Right_25
*383 PHY_EDGE_ROW_26_Left_54
*384 PHY_EDGE_ROW_26_Right_26
*385 PHY_EDGE_ROW_27_Left_55
*386 PHY_EDGE_ROW_27_Right_27
*387 PHY_EDGE_ROW_2_Left_30
*388 PHY_EDGE_ROW_2_Right_2
*389 PHY_EDGE_ROW_3_Left_31
*390 PHY_EDGE_ROW_3_Right_3
*391 PHY_EDGE_ROW_4_Left_32
*392 PHY_EDGE_ROW_4_Right_4
*393 PHY_EDGE_ROW_5_Left_33
*394 PHY_EDGE_ROW_5_Right_5
*395 PHY_EDGE_ROW_6_Left_34
*396 PHY_EDGE_ROW_6_Right_6
*397 PHY_EDGE_ROW_7_Left_35
*398 PHY_EDGE_ROW_7_Right_7
*399 PHY_EDGE_ROW_8_Left_36
*400 PHY_EDGE_ROW_8_Right_8
*401 PHY_EDGE_ROW_9_Left_37
*402 PHY_EDGE_ROW_9_Right_9
*403 TAP_TAPCELL_ROW_0_56
*404 TAP_TAPCELL_ROW_0_57
*405 TAP_TAPCELL_ROW_0_58
*406 TAP_TAPCELL_ROW_10_72
*407 TAP_TAPCELL_ROW_10_73
*408 TAP_TAPCELL_ROW_11_74
*409 TAP_TAPCELL_ROW_12_75
*410 TAP_TAPCELL_ROW_12_76
*411 TAP_TAPCELL_ROW_13_77
*412 TAP_TAPCELL_ROW_14_78
*413 TAP_TAPCELL_ROW_14_79
*414 TAP_TAPCELL_ROW_15_80
*415 TAP_TAPCELL_ROW_16_81
*416 TAP_TAPCELL_ROW_16_82
*417 TAP_TAPCELL_ROW_17_83
*418 TAP_TAPCELL_ROW_18_84
*419 TAP_TAPCELL_ROW_18_85
*420 TAP_TAPCELL_ROW_19_86
*421 TAP_TAPCELL_ROW_1_59
*422 TAP_TAPCELL_ROW_20_87
*423 TAP_TAPCELL_ROW_20_88
*424 TAP_TAPCELL_ROW_21_89
*425 TAP_TAPCELL_ROW_22_90
*426 TAP_TAPCELL_ROW_22_91
*427 TAP_TAPCELL_ROW_23_92
*428 TAP_TAPCELL_ROW_24_93
*429 TAP_TAPCELL_ROW_24_94
*430 TAP_TAPCELL_ROW_25_95
*431 TAP_TAPCELL_ROW_26_96
*432 TAP_TAPCELL_ROW_26_97
*433 TAP_TAPCELL_ROW_27_100
*434 TAP_TAPCELL_ROW_27_98
*435 TAP_TAPCELL_ROW_27_99
*436 TAP_TAPCELL_ROW_2_60
*437 TAP_TAPCELL_ROW_2_61
*438 TAP_TAPCELL_ROW_3_62
*439 TAP_TAPCELL_ROW_4_63
*440 TAP_TAPCELL_ROW_4_64
*441 TAP_TAPCELL_ROW_5_65
*442 TAP_TAPCELL_ROW_6_66
*443 TAP_TAPCELL_ROW_6_67
*444 TAP_TAPCELL_ROW_7_68
*445 TAP_TAPCELL_ROW_8_69
*446 TAP_TAPCELL_ROW_8_70
*447 TAP_TAPCELL_ROW_9_71
*448 _030_
*449 _031_
*450 _032_
*451 _033_
*452 _034_
*453 _035_
*454 _036_
*455 _037_
*456 _038_
*457 _039_
*458 _040_
*459 _041_
*460 _042_
*461 _043_
*462 _044_
*463 _045_
*464 _046_
*465 _047_
*466 _048_
*467 _049_
*468 _050_
*469 _051_
*470 _052_
*471 _053_
*472 _054_
*473 _055_
*474 _056_
*475 _057_
*476 _058_
*477 _059_
*478 _060_
*479 _061_
*480 _062_
*481 _063_
*482 _064_
*483 _065_
*484 _066_
*485 _067_
*486 _068_
*487 _069_
*488 _070_
*489 _071_
*490 _072_
*491 _073_
*492 _074_
*493 _075_
*494 _076_
*495 _077_
*496 _078_
*497 _079_
*498 _080_
*499 _081_
*500 _082_
*501 _083_
*502 _084_
*503 _085_
*504 _086_
*505 _087_
*506 _088_
*507 _089_
*508 _090_
*509 _091_
*510 _092_
*511 _093_
*512 _094_
*513 _095_
*514 _096_
*515 _097_
*516 _098_
*517 _099_
*518 _100_
*519 _101_
*520 _102_
*521 _102__25
*522 _103_
*523 _104_
*524 _105_
*525 _106_
*526 _107_
*527 _108_
*528 _109_
*529 _110_
*530 _111_
*531 _112_
*532 _113_
*533 _114_
*534 _115_
*535 _116_
*536 clkbuf_0_clk
*537 clkbuf_2_0__f_clk
*538 clkbuf_2_1__f_clk
*539 clkbuf_2_2__f_clk
*540 clkbuf_2_3__f_clk
*541 clkload0
*542 clkload1
*543 clkload2
*544 fanout16
*545 fanout17
*546 fanout18
*547 fanout19
*548 fanout20
*549 fanout21
*550 fanout22
*551 fanout23
*552 fanout24
*553 hold1
*554 hold10
*555 hold11
*556 hold12
*557 hold13
*558 hold14
*559 hold15
*560 hold16
*561 hold17
*562 hold18
*563 hold19
*564 hold2
*565 hold20
*566 hold21
*567 hold22
*568 hold23
*569 hold24
*570 hold25
*571 hold26
*572 hold27
*573 hold28
*574 hold29
*575 hold3
*576 hold30
*577 hold31
*578 hold32
*579 hold33
*580 hold34
*581 hold35
*582 hold4
*583 hold5
*584 hold6
*585 hold7
*586 hold8
*587 hold9
*588 input1
*589 input2
*590 input3
*591 input4
*592 input5
*593 input6
*594 input7
*595 output10
*596 output11
*597 output12
*598 output13
*599 output14
*600 output15
*601 output8
*602 output9

*PORTS
clk I
decoded_out[0] O
decoded_out[1] O
decoded_out[2] O
decoded_out[3] O
decoded_out[4] O
decoded_out[5] O
decoded_out[6] O
decoded_out[7] O
rst_n I
survivor_select_00 I
survivor_select_01 I
survivor_select_10 I
survivor_select_11 I
winner_state[0] I
winner_state[1] I

*D_NET *3 0.00707463
*CONN
*P clk I
*I *536:A I *D sky130_fd_sc_hd__clkbuf_16
*CAP
1 clk 0.0020805
2 *536:A 0.000642207
3 *3:7 0.0027227
4 *536:A *136:42 0.00100413
5 *3:7 *451:A1 0
6 *3:7 *453:A 0
7 *3:7 *457:A0 0.000124689
8 *3:7 *457:S 0.000176234
9 *3:7 *505:D 0
10 *3:7 *571:A 0.000324167
11 *3:7 *136:25 0
12 *3:7 *147:12 0
*RES
1 clk *3:7 46 
2 *3:7 *536:A 21.3357 
*END

*D_NET *4 0.000883814
*CONN
*P decoded_out[0] O
*I *601:X O *D sky130_fd_sc_hd__buf_2
*CAP
1 decoded_out[0] 0.000441907
2 *601:X 0.000441907
*RES
1 *601:X decoded_out[0] 21.9098 
*END

*D_NET *5 0.000659674
*CONN
*P decoded_out[1] O
*I *602:X O *D sky130_fd_sc_hd__buf_2
*CAP
1 decoded_out[1] 0.000314077
2 *602:X 0.000314077
3 decoded_out[1] *545:A 0
4 decoded_out[1] *602:A 3.15196e-05
*RES
1 *602:X decoded_out[1] 18.8741 
*END

*D_NET *6 0.00065167
*CONN
*P decoded_out[2] O
*I *595:X O *D sky130_fd_sc_hd__buf_2
*CAP
1 decoded_out[2] 0.000295863
2 *595:X 0.000295863
3 decoded_out[2] *595:A 5.99442e-05
*RES
1 *595:X decoded_out[2] 19.4092 
*END

*D_NET *7 0.000504384
*CONN
*P decoded_out[3] O
*I *596:X O *D sky130_fd_sc_hd__buf_2
*CAP
1 decoded_out[3] 0.000247938
2 *596:X 0.000247938
3 decoded_out[3] *596:A 8.50795e-06
*RES
1 *596:X decoded_out[3] 18.1949 
*END

*D_NET *8 0.000615982
*CONN
*P decoded_out[4] O
*I *597:X O *D sky130_fd_sc_hd__buf_2
*CAP
1 decoded_out[4] 0.000276618
2 *597:X 0.000276618
3 decoded_out[4] *597:A 6.27457e-05
*RES
1 *597:X decoded_out[4] 19.4092 
*END

*D_NET *9 0.000671826
*CONN
*P decoded_out[5] O
*I *598:X O *D sky130_fd_sc_hd__buf_2
*CAP
1 decoded_out[5] 0.000298623
2 *598:X 0.000298623
3 decoded_out[5] *495:A 2.00751e-05
4 decoded_out[5] *598:A 5.45041e-05
*RES
1 *598:X decoded_out[5] 19.7128 
*END

*D_NET *10 0.000726522
*CONN
*P decoded_out[6] O
*I *599:X O *D sky130_fd_sc_hd__buf_2
*CAP
1 decoded_out[6] 0.00027822
2 *599:X 0.00027822
3 decoded_out[6] *600:A 3.25078e-05
4 decoded_out[6] *103:14 0.000114845
5 decoded_out[6] *111:135 9.25014e-06
6 decoded_out[6] *113:23 1.34792e-05
*RES
1 *599:X decoded_out[6] 19.4092 
*END

*D_NET *11 0.00107234
*CONN
*P decoded_out[7] O
*I *600:X O *D sky130_fd_sc_hd__buf_2
*CAP
1 decoded_out[7] 0.000536168
2 *600:X 0.000536168
*RES
1 *600:X decoded_out[7] 23.6592 
*END

*D_NET *12 0.0010155
*CONN
*P rst_n I
*I *588:A I *D sky130_fd_sc_hd__buf_1
*CAP
1 rst_n 0.000491816
2 *588:A 0.000491816
3 *588:A *492:C 0
4 *588:A *496:A_N 3.18676e-05
*RES
1 rst_n *588:A 23.6571 
*END

*D_NET *13 0.000632038
*CONN
*P survivor_select_00 I
*I *589:A I *D sky130_fd_sc_hd__clkbuf_2
*CAP
1 survivor_select_00 0.000316019
2 *589:A 0.000316019
*RES
1 survivor_select_00 *589:A 19.7128 
*END

*D_NET *14 0.000630484
*CONN
*P survivor_select_01 I
*I *590:A I *D sky130_fd_sc_hd__clkbuf_2
*CAP
1 survivor_select_01 0.000315242
2 *590:A 0.000315242
*RES
1 survivor_select_01 *590:A 21.6012 
*END

*D_NET *15 0.000687824
*CONN
*P survivor_select_10 I
*I *591:A I *D sky130_fd_sc_hd__clkbuf_2
*CAP
1 survivor_select_10 0.000343912
2 *591:A 0.000343912
*RES
1 survivor_select_10 *591:A 22.2083 
*END

*D_NET *16 0.000589185
*CONN
*P survivor_select_11 I
*I *592:A I *D sky130_fd_sc_hd__clkbuf_2
*CAP
1 survivor_select_11 0.000294593
2 *592:A 0.000294593
*RES
1 survivor_select_11 *592:A 20.994 
*END

*D_NET *17 0.00083555
*CONN
*P winner_state[0] I
*I *593:A I *D sky130_fd_sc_hd__clkbuf_1
*CAP
1 winner_state[0] 0.000417775
2 *593:A 0.000417775
*RES
1 winner_state[0] *593:A 21.8357 
*END

*D_NET *18 0.00083555
*CONN
*P winner_state[1] I
*I *594:A I *D sky130_fd_sc_hd__clkbuf_1
*CAP
1 winner_state[1] 0.000417775
2 *594:A 0.000417775
*RES
1 winner_state[1] *594:A 21.8357 
*END

*D_NET *19 0.00310283
*CONN
*I *474:A0 I *D sky130_fd_sc_hd__mux4_1
*I *560:A I *D sky130_fd_sc_hd__dlygate4sd3_1
*I *507:Q O *D sky130_fd_sc_hd__dfrtp_1
*CAP
1 *474:A0 0.000115288
2 *560:A 0.0001305
3 *507:Q 0.000252413
4 *19:10 0.000498201
5 *474:A0 *474:A2 9.41642e-05
6 *474:A0 *474:A3 4.58194e-05
7 *474:A0 *502:RESET_B 0.00018503
8 *474:A0 *115:14 1.50223e-05
9 *474:A0 *115:104 3.42526e-05
10 *474:A0 *158:12 3.29297e-05
11 *560:A *538:A 0.000256526
12 *560:A *115:14 0.000357582
13 *19:10 *502:RESET_B 0.000246525
14 *19:10 *507:RESET_B 0.000264104
15 *19:10 *156:12 7.61932e-05
16 *19:10 *158:12 0.000498281
*RES
1 *507:Q *19:10 21.6571 
2 *19:10 *560:A 18.4429 
3 *19:10 *474:A0 17.3 
*END

*D_NET *20 0.00452293
*CONN
*I *475:A I *D sky130_fd_sc_hd__or3_1
*I *455:A0 I *D sky130_fd_sc_hd__mux2_1
*I *555:A I *D sky130_fd_sc_hd__dlygate4sd3_1
*I *508:Q O *D sky130_fd_sc_hd__dfrtp_1
*CAP
1 *475:A 9.78455e-05
2 *455:A0 0.000247882
3 *555:A 0.000248396
4 *508:Q 0.000221971
5 *20:21 0.000671864
6 *20:10 0.000796503
7 *455:A0 *477:A_N 9.60875e-05
8 *455:A0 *479:A3 1.90303e-05
9 *455:A0 *479:A4 5.03772e-05
10 *455:A0 *584:A 0.000232447
11 *455:A0 *111:70 0.000313235
12 *455:A0 *115:22 2.42516e-05
13 *455:A0 *115:33 1.58163e-05
14 *475:A *509:CLK 5.29944e-05
15 *475:A *584:A 0
16 *475:A *117:10 0
17 *475:A *117:62 3.17148e-05
18 *555:A *467:A0 5.66971e-05
19 *20:10 *472:B 0.000120368
20 *20:10 *508:CLK 0.000226279
21 *20:10 *100:12 9.84016e-05
22 *20:10 *100:23 1.6815e-05
23 *20:10 *100:56 4.58402e-05
24 *20:10 *116:20 0.000224575
25 *20:21 *467:A0 0.000120227
26 *20:21 *479:A3 7.6644e-05
27 *20:21 *509:CLK 1.76039e-05
28 *20:21 *531:D 0.000128154
29 *20:21 *100:23 0.000114645
30 *20:21 *100:34 0.00015627
31 *20:21 *117:14 0
*RES
1 *508:Q *20:10 20.3536 
2 *20:10 *555:A 18.0321 
3 *20:10 *20:21 8.01786 
4 *20:21 *455:A0 20.2286 
5 *20:21 *475:A 15.7464 
*END

*D_NET *21 0.00182104
*CONN
*I *580:A I *D sky130_fd_sc_hd__dlygate4sd3_1
*I *585:A I *D sky130_fd_sc_hd__dlygate4sd3_1
*I *509:Q O *D sky130_fd_sc_hd__dfrtp_1
*CAP
1 *580:A 0.000202432
2 *585:A 0
3 *509:Q 0.000259566
4 *21:10 0.000461999
5 *580:A *482:A_N 0.000230482
6 *580:A *544:A 0
7 *580:A *550:A 0
8 *580:A *110:10 4.57445e-05
9 *580:A *110:23 4.1331e-06
10 *580:A *117:62 0
11 *21:10 *475:B 9.90367e-05
12 *21:10 *503:D 0.000119065
13 *21:10 *509:CLK 9.71197e-05
14 *21:10 *544:A 0
15 *21:10 *111:35 0.000188586
16 *21:10 *111:49 0.000112875
17 *21:10 *117:62 0
*RES
1 *509:Q *21:10 19.8714 
2 *21:10 *585:A 13.8 
3 *21:10 *580:A 18.2286 
*END

*D_NET *22 0.00554457
*CONN
*I *469:A0 I *D sky130_fd_sc_hd__mux2_1
*I *485:A I *D sky130_fd_sc_hd__or3_1
*I *577:A I *D sky130_fd_sc_hd__dlygate4sd3_1
*I *510:Q O *D sky130_fd_sc_hd__dfrtp_1
*CAP
1 *469:A0 0.000419126
2 *485:A 0.000394899
3 *577:A 0.00028298
4 *510:Q 0.000159029
5 *22:21 0.000921792
6 *22:10 0.000549775
7 *469:A0 *457:A1 5.33005e-05
8 *469:A0 *469:S 2.54872e-05
9 *469:A0 *511:CLK 9.02539e-05
10 *469:A0 *572:A 0.000176491
11 *469:A0 *118:70 0
12 *469:A0 *125:85 0.000266644
13 *485:A *486:A 0.000180327
14 *485:A *488:B 0.000688991
15 *485:A *525:RESET_B 0.000228558
16 *485:A *110:40 1.24368e-05
17 *485:A *112:54 0.000102197
18 *485:A *112:58 0.000380811
19 *577:A *504:RESET_B 3.02581e-06
20 *577:A *36:10 0.000140678
21 *22:10 *450:A1 2.71649e-05
22 *22:10 *481:A 6.5185e-05
23 *22:10 *125:85 0.000126439
24 *22:10 *147:47 2.84026e-05
25 *22:21 *481:A 2.94103e-05
26 *22:21 *510:RESET_B 0
27 *22:21 *118:72 0
28 *22:21 *125:85 0.000191163
*RES
1 *510:Q *22:10 16.8 
2 *22:10 *577:A 18.8536 
3 *22:10 *22:21 2.55357 
4 *22:21 *485:A 27.2107 
5 *22:21 *469:A0 21.8357 
*END

*D_NET *23 0.00433609
*CONN
*I *556:A I *D sky130_fd_sc_hd__dlygate4sd3_1
*I *581:A I *D sky130_fd_sc_hd__dlygate4sd3_1
*I *511:Q O *D sky130_fd_sc_hd__dfrtp_1
*CAP
1 *556:A 0.000885669
2 *581:A 0.000186545
3 *511:Q 0.00013333
4 *23:6 0.00120554
5 *556:A *469:S 6.87574e-05
6 *556:A *470:A0 0.000139907
7 *556:A *470:S 0.000102207
8 *556:A *494:B1 9.25014e-06
9 *556:A *512:D 4.79638e-05
10 *556:A *512:RESET_B 0.000136136
11 *556:A *578:A 0.000555481
12 *556:A *90:48 0
13 *556:A *110:64 0
14 *556:A *118:25 0.000158282
15 *556:A *133:6 9.41642e-05
16 *581:A *489:A2 0.000149911
17 *581:A *489:A4 8.00806e-05
18 *581:A *90:33 3.67452e-05
19 *581:A *90:48 0.000129185
20 *581:A *114:70 0.000119276
21 *23:6 *469:S 9.7659e-05
*RES
1 *511:Q *23:6 11.0679 
2 *23:6 *581:A 24.1929 
3 *23:6 *556:A 34.4071 
*END

*D_NET *24 0.00193589
*CONN
*I *578:A I *D sky130_fd_sc_hd__dlygate4sd3_1
*I *512:Q O *D sky130_fd_sc_hd__dfrtp_1
*CAP
1 *578:A 0.000494326
2 *512:Q 0.000494326
3 *578:A *532:RESET_B 0.000153047
4 *578:A *550:A 0.000134738
5 *578:A *118:10 0.000103974
6 *556:A *578:A 0.000555481
*RES
1 *512:Q *578:A 36.225 
*END

*D_NET *25 6.75393e-05
*CONN
*I *579:A I *D sky130_fd_sc_hd__dlygate4sd3_1
*I *513:Q O *D sky130_fd_sc_hd__dfrtp_1
*CAP
1 *579:A 2.23988e-05
2 *513:Q 2.23988e-05
3 *579:A *513:RESET_B 2.27416e-05
*RES
1 *513:Q *579:A 19.1357 
*END

*D_NET *26 0.00568712
*CONN
*I *454:A1 I *D sky130_fd_sc_hd__mux2_1
*I *562:A I *D sky130_fd_sc_hd__dlygate4sd3_1
*I *474:A1 I *D sky130_fd_sc_hd__mux4_1
*I *514:Q O *D sky130_fd_sc_hd__dfrtp_1
*CAP
1 *454:A1 0.000624752
2 *562:A 0
3 *474:A1 0.000278224
4 *514:Q 0
5 *26:27 0.00135419
6 *26:4 0.00100766
7 *454:A1 *502:D 0.000227539
8 *454:A1 *520:D 5.66971e-05
9 *454:A1 *530:D 0.000522645
10 *454:A1 *100:23 0
11 *454:A1 *100:34 0
12 *454:A1 *115:22 0.000481358
13 *474:A1 *460:A1 0.000291002
14 *474:A1 *502:RESET_B 5.4917e-05
15 *474:A1 *98:16 7.70717e-05
16 *474:A1 *116:24 4.00276e-06
17 *474:A1 *116:28 1.34882e-05
18 *26:27 *466:A0 1.52131e-05
19 *26:27 *466:A1 5.50052e-05
20 *26:27 *508:CLK 0.000187564
21 *26:27 *520:D 0.000287013
22 *26:27 *114:52 0.000127614
23 *26:27 *116:20 2.53112e-06
24 *26:27 *116:24 1.86382e-05
*RES
1 *514:Q *26:4 9.3 
2 *26:4 *474:A1 24.1393 
3 *26:4 *26:27 21.3393 
4 *26:27 *562:A 9.3 
5 *26:27 *454:A1 32.175 
*END

*D_NET *27 0.00329571
*CONN
*I *583:A I *D sky130_fd_sc_hd__dlygate4sd3_1
*I *477:C I *D sky130_fd_sc_hd__and3b_1
*I *515:Q O *D sky130_fd_sc_hd__dfrtp_1
*CAP
1 *583:A 0.000522677
2 *477:C 0.000116546
3 *515:Q 0.000387618
4 *27:6 0.00102684
5 *477:C *479:A2 0.000174805
6 *477:C *479:B1 6.73217e-05
7 *477:C *100:34 1.46717e-05
8 *477:C *115:22 5.84267e-05
9 *477:C *115:33 0.000105696
10 *583:A *467:A0 0.000354111
11 *583:A *126:10 1.56e-05
12 *27:6 *455:A1 4.88637e-05
13 *27:6 *467:A0 0.000358971
14 *27:6 *114:52 4.35567e-05
*RES
1 *515:Q *27:6 14.7643 
2 *27:6 *477:C 22.0679 
3 *27:6 *583:A 16.3179 
*END

*D_NET *28 0.00280133
*CONN
*I *468:A1 I *D sky130_fd_sc_hd__mux2_1
*I *480:C I *D sky130_fd_sc_hd__and3b_1
*I *559:A I *D sky130_fd_sc_hd__dlygate4sd3_1
*I *516:Q O *D sky130_fd_sc_hd__dfrtp_1
*CAP
1 *468:A1 0.000218351
2 *480:C 0.000112325
3 *559:A 0
4 *516:Q 0.000365518
5 *28:14 0.000199427
6 *28:10 0.000670971
7 *468:A1 *456:A1 0.00010326
8 *468:A1 *458:S 0.000130529
9 *468:A1 *468:A0 5.01213e-05
10 *468:A1 *484:A2 8.00806e-05
11 *468:A1 *90:27 1.08359e-05
12 *468:A1 *114:64 1.92789e-05
13 *468:A1 *128:10 6.14026e-05
14 *480:C *482:B 2.89016e-05
15 *480:C *484:A2 3.67142e-05
16 *28:10 *479:A1 4.02462e-05
17 *28:10 *503:RESET_B 2.51837e-05
18 *28:10 *90:27 6.07232e-05
19 *28:10 *117:82 0.000334754
20 *28:10 *128:10 0.000150469
21 *28:14 *458:S 5.52302e-05
22 *28:14 *484:A2 4.70078e-05
*RES
1 *516:Q *28:10 23.05 
2 *28:10 *28:14 6.26786 
3 *28:14 *559:A 9.3 
4 *28:14 *480:C 11.4964 
5 *28:10 *468:A1 19.3714 
*END

*D_NET *29 0.00123936
*CONN
*I *487:C I *D sky130_fd_sc_hd__and3b_1
*I *568:A I *D sky130_fd_sc_hd__dlygate4sd3_1
*I *517:Q O *D sky130_fd_sc_hd__dfrtp_1
*CAP
1 *487:C 0.000136016
2 *568:A 8.06383e-05
3 *517:Q 0.000180772
4 *29:8 0.000397426
5 *487:C *487:A_N 5.52238e-05
6 *487:C *487:B 1.40415e-05
7 *487:C *533:RESET_B 0.000221641
8 *487:C *110:74 1.17968e-05
9 *487:C *110:82 4.58192e-05
10 *487:C *118:70 0
11 *568:A *110:82 6.42242e-05
12 *568:A *118:70 0
13 *29:8 *517:RESET_B 1.40306e-05
14 *29:8 *533:RESET_B 1.77347e-05
*RES
1 *517:Q *29:8 15.9786 
2 *29:8 *568:A 15.4429 
3 *29:8 *487:C 17.3179 
*END

*D_NET *30 0.00500949
*CONN
*I *566:A I *D sky130_fd_sc_hd__dlygate4sd3_1
*I *470:A1 I *D sky130_fd_sc_hd__mux2_1
*I *491:C I *D sky130_fd_sc_hd__and3b_1
*I *518:Q O *D sky130_fd_sc_hd__dfrtp_1
*CAP
1 *566:A 0.000298307
2 *470:A1 0.000124403
3 *491:C 0.000286154
4 *518:Q 0.000463366
5 *30:23 0.000721221
6 *30:6 0.00104803
7 *470:A1 *458:A0 1.17968e-05
8 *470:A1 *458:A1 3.6572e-05
9 *470:A1 *470:S 1.02504e-05
10 *470:A1 *499:B1 2.38236e-05
11 *470:A1 *506:D 2.46999e-05
12 *470:A1 *512:D 7.73662e-05
13 *491:C *464:A1 3.92854e-05
14 *491:C *494:A3 0
15 *491:C *494:B1 7.8327e-05
16 *491:C *497:C 0.000270243
17 *491:C *527:RESET_B 0.000248486
18 *491:C *110:64 2.34204e-05
19 *491:C *110:118 0.000111825
20 *566:A *458:A1 2.15245e-05
21 *566:A *498:B 0.000183726
22 *566:A *557:A 9.16173e-05
23 *30:6 *506:CLK 3.18676e-05
24 *30:6 *506:D 0.000198352
25 *30:6 *102:97 8.07313e-05
26 *30:23 *498:B 0.000184745
27 *30:23 *506:D 0.000250589
28 *30:23 *557:A 6.87574e-05
*RES
1 *518:Q *30:6 15.5857 
2 *30:6 *491:C 26.6214 
3 *30:6 *30:23 5.60714 
4 *30:23 *470:A1 21.4607 
5 *30:23 *566:A 14.7821 
*END

*D_NET *31 0.000785256
*CONN
*I *496:B I *D sky130_fd_sc_hd__and3b_1
*I *519:Q O *D sky130_fd_sc_hd__dfrtp_1
*CAP
1 *496:B 0.000148457
2 *519:Q 0.000148457
3 *496:B *492:C 4.98872e-05
4 *496:B *494:A3 0
5 *496:B *497:C 7.6644e-05
6 *496:B *110:118 0.000151818
7 *496:B *113:38 0.000154762
8 *496:B *119:29 5.52302e-05
*RES
1 *519:Q *496:B 31.6 
*END

*D_NET *32 0.000717292
*CONN
*I *553:A I *D sky130_fd_sc_hd__dlygate4sd3_1
*I *520:Q O *D sky130_fd_sc_hd__dfrtp_1
*CAP
1 *553:A 0.00029999
2 *520:Q 0.00029999
3 *553:A *513:D 0.000117311
4 *553:A *528:CLK 0
5 *553:A *528:RESET_B 0
6 *553:A *100:60 0
7 *553:A *100:62 0
8 *553:A *100:64 0
9 *553:A *116:82 0
*RES
1 *520:Q *553:A 33.0464 
*END

*D_NET *33 0.00396688
*CONN
*I *563:A I *D sky130_fd_sc_hd__dlygate4sd3_1
*I *474:A2 I *D sky130_fd_sc_hd__mux4_1
*I *501:Q O *D sky130_fd_sc_hd__dfrtp_1
*CAP
1 *563:A 0.000146497
2 *474:A2 0.000730508
3 *501:Q 0.000498828
4 *33:6 0.00137583
5 *474:A2 *460:A0 0.000112177
6 *474:A2 *460:A1 9.23804e-05
7 *474:A2 *460:S 0.0001351
8 *474:A2 *474:A3 0.000114288
9 *474:A2 *501:CLK 0.000187821
10 *474:A2 *515:D 3.18676e-05
11 *474:A2 *125:25 0.000125035
12 *563:A *453:A 9.34004e-05
13 *563:A *523:D 2.89016e-05
14 *563:A *125:10 0.000176234
15 *33:6 *501:CLK 2.38501e-05
16 *474:A0 *474:A2 9.41642e-05
*RES
1 *501:Q *33:6 17.6393 
2 *33:6 *474:A2 25.2152 
3 *33:6 *563:A 21.9071 
*END

*D_NET *34 0.00363288
*CONN
*I *478:B I *D sky130_fd_sc_hd__and2b_1
*I *587:A I *D sky130_fd_sc_hd__dlygate4sd3_1
*I *502:Q O *D sky130_fd_sc_hd__dfrtp_1
*CAP
1 *478:B 0.000139039
2 *587:A 0.000931995
3 *502:Q 0.000102963
4 *34:10 0.001174
5 *478:B *478:A_N 6.05161e-06
6 *587:A *461:S 2.28598e-05
7 *587:A *478:A_N 5.03772e-05
8 *587:A *558:A 0.000508079
9 *587:A *40:16 0.000403458
10 *587:A *130:6 4.88637e-05
11 *34:10 *474:S1 9.61915e-05
12 *34:10 *476:C 3.4323e-06
13 *34:10 *115:113 0.000145574
*RES
1 *502:Q *34:10 21.7643 
2 *34:10 *587:A 24.3714 
3 *34:10 *478:B 11.0857 
*END

*D_NET *35 0.00451815
*CONN
*I *482:B I *D sky130_fd_sc_hd__and2b_1
*I *570:A I *D sky130_fd_sc_hd__dlygate4sd3_1
*I *503:Q O *D sky130_fd_sc_hd__dfrtp_1
*CAP
1 *482:B 0.00107985
2 *570:A 5.60362e-05
3 *503:Q 0.000243996
4 *35:12 0.00137988
5 *482:B *456:A0 0.000306311
6 *482:B *480:B 5.33005e-05
7 *482:B *482:A_N 0.000621854
8 *482:B *484:A4 1.77347e-05
9 *482:B *503:CLK 0.000173097
10 *482:B *532:D 1.58163e-05
11 *482:B *90:27 9.3111e-05
12 *482:B *90:33 2.28598e-05
13 *482:B *102:14 4.80729e-05
14 *482:B *115:37 0.000220448
15 *570:A *504:D 5.62995e-05
16 *35:12 *41:10 0
17 *35:12 *41:21 0
18 *35:12 *98:16 0
19 *35:12 *98:34 0.000100576
20 *35:12 *136:50 0
21 *480:C *482:B 2.89016e-05
*RES
1 *503:Q *35:12 23.2107 
2 *35:12 *570:A 10.6571 
3 *35:12 *482:B 36.925 
*END

*D_NET *36 0.00612176
*CONN
*I *572:A I *D sky130_fd_sc_hd__dlygate4sd3_1
*I *488:B I *D sky130_fd_sc_hd__and2b_1
*I *504:Q O *D sky130_fd_sc_hd__dfrtp_1
*CAP
1 *572:A 0.000832519
2 *488:B 0.000456157
3 *504:Q 0.00039106
4 *36:10 0.00167974
5 *488:B *489:A4 5.71472e-05
6 *488:B *490:A 9.80173e-05
7 *488:B *525:RESET_B 1.02806e-05
8 *488:B *42:10 9.51514e-06
9 *488:B *145:12 0.000224583
10 *572:A *463:A0 0.000214578
11 *572:A *511:D 0.000155815
12 *572:A *517:D 0
13 *572:A *569:A 0.000441541
14 *572:A *125:85 0.000147565
15 *572:A *150:6 0.000226513
16 *36:10 *517:D 0
17 *36:10 *125:85 0.000170575
18 *469:A0 *572:A 0.000176491
19 *485:A *488:B 0.000688991
20 *577:A *36:10 0.000140678
*RES
1 *504:Q *36:10 19.8714 
2 *36:10 *488:B 24.1929 
3 *36:10 *572:A 32.0321 
*END

*D_NET *37 0.0013591
*CONN
*I *493:B I *D sky130_fd_sc_hd__and2b_1
*I *564:A I *D sky130_fd_sc_hd__dlygate4sd3_1
*I *505:Q O *D sky130_fd_sc_hd__dfrtp_1
*CAP
1 *493:B 0.000245617
2 *564:A 0
3 *505:Q 0.000296132
4 *37:12 0.000541749
5 *493:B *491:B 0.000229854
6 *37:12 *452:A1 4.57445e-05
7 *37:12 *452:S 0
8 *37:12 *491:B 0
9 *37:12 *527:D 0
10 *37:12 *122:12 0
*RES
1 *505:Q *37:12 23.6214 
2 *37:12 *564:A 9.3 
3 *37:12 *493:B 14.4964 
*END

*D_NET *38 0.00191391
*CONN
*I *498:B I *D sky130_fd_sc_hd__and2b_1
*I *506:Q O *D sky130_fd_sc_hd__dfrtp_1
*CAP
1 *498:B 0.0005173
2 *506:Q 0.0005173
3 *498:B *499:A1 1.98839e-05
4 *498:B *499:A4 9.71197e-05
5 *498:B *499:B1 0.000258576
6 *498:B *534:RESET_B 9.59708e-05
7 *498:B *550:A 0
8 *498:B *111:135 0
9 *498:B *118:10 3.92854e-05
10 *566:A *498:B 0.000183726
11 *30:23 *498:B 0.000184745
*RES
1 *506:Q *498:B 37.7071 
*END

*D_NET *39 0.00419014
*CONN
*I *474:A3 I *D sky130_fd_sc_hd__mux4_1
*I *448:A1 I *D sky130_fd_sc_hd__mux2_1
*I *567:A I *D sky130_fd_sc_hd__dlygate4sd3_1
*I *522:Q O *D sky130_fd_sc_hd__dfrtp_1
*CAP
1 *474:A3 0.000433407
2 *448:A1 0.000421802
3 *567:A 0.000168801
4 *522:Q 0
5 *39:19 0.00108618
6 *39:4 0.000399769
7 *448:A1 *448:A0 7.83659e-05
8 *448:A1 *460:A0 0.000286673
9 *448:A1 *460:A1 0.000184205
10 *448:A1 *125:52 0.000129541
11 *474:A3 *460:A1 5.33005e-05
12 *474:A3 *115:104 1.95368e-05
13 *567:A *114:39 0.000310598
14 *39:19 *460:A1 0.000457854
15 *474:A0 *474:A3 4.58194e-05
16 *474:A2 *474:A3 0.000114288
*RES
1 *522:Q *39:4 9.3 
2 *39:4 *567:A 13.0321 
3 *39:4 *39:19 14.8929 
4 *39:19 *448:A1 25.8714 
5 *39:19 *474:A3 24.0857 
*END

*D_NET *40 0.00308007
*CONN
*I *476:A I *D sky130_fd_sc_hd__and3_1