* NGSPICE file created from Maximum_Path_Memory.ext - technology: sky130A

* Black-box entry subcircuit for sky130_fd_sc_hd__fill_2 abstract view
.subckt sky130_fd_sc_hd__fill_2 VGND VNB VPB VPWR
.ends

* Black-box entry subcircuit for sky130_ef_sc_hd__decap_12 abstract view
.subckt sky130_ef_sc_hd__decap_12 VPWR VGND VPB VNB
.ends

* Black-box entry subcircuit for sky130_fd_sc_hd__tapvpwrvgnd_1 abstract view
.subckt sky130_fd_sc_hd__tapvpwrvgnd_1 VGND VPWR
.ends

* Black-box entry subcircuit for sky130_fd_sc_hd__decap_6 abstract view
.subckt sky130_fd_sc_hd__decap_6 VGND VNB VPB VPWR
.ends

* Black-box entry subcircuit for sky130_fd_sc_hd__nand2b_1 abstract view
.subckt sky130_fd_sc_hd__nand2b_1 A_N B VGND VNB VPB VPWR Y
.ends

* Black-box entry subcircuit for sky130_fd_sc_hd__fill_1 abstract view
.subckt sky130_fd_sc_hd__fill_1 VGND VNB VPB VPWR
.ends

* Black-box entry subcircuit for sky130_fd_sc_hd__or2_1 abstract view
.subckt sky130_fd_sc_hd__or2_1 A B VGND VNB VPB VPWR X
.ends

* Black-box entry subcircuit for sky130_fd_sc_hd__mux2_1 abstract view
.subckt sky130_fd_sc_hd__mux2_1 A0 A1 S VGND VNB VPB VPWR X
.ends

* Black-box entry subcircuit for sky130_fd_sc_hd__decap_3 abstract view
.subckt sky130_fd_sc_hd__decap_3 VGND VNB VPB VPWR
.ends

* Black-box entry subcircuit for sky130_fd_sc_hd__nand2_1 abstract view
.subckt sky130_fd_sc_hd__nand2_1 A B VGND VNB VPB VPWR Y
.ends

* Black-box entry subcircuit for sky130_fd_sc_hd__o221a_1 abstract view
.subckt sky130_fd_sc_hd__o221a_1 A1 A2 B1 B2 C1 VGND VNB VPB VPWR X
.ends

* Black-box entry subcircuit for sky130_fd_sc_hd__a21oi_1 abstract view
.subckt sky130_fd_sc_hd__a21oi_1 A1 A2 B1 VGND VNB VPB VPWR Y
.ends

* Black-box entry subcircuit for sky130_fd_sc_hd__decap_8 abstract view
.subckt sky130_fd_sc_hd__decap_8 VGND VNB VPB VPWR
.ends

* Black-box entry subcircuit for sky130_fd_sc_hd__a211o_1 abstract view
.subckt sky130_fd_sc_hd__a211o_1 A1 A2 B1 C1 VGND VNB VPB VPWR X
.ends

* Black-box entry subcircuit for sky130_fd_sc_hd__a21o_1 abstract view
.subckt sky130_fd_sc_hd__a21o_1 A1 A2 B1 VGND VNB VPB VPWR X
.ends

* Black-box entry subcircuit for sky130_fd_sc_hd__xor2_1 abstract view
.subckt sky130_fd_sc_hd__xor2_1 A B VGND VNB VPB VPWR X
.ends

* Black-box entry subcircuit for sky130_fd_sc_hd__decap_4 abstract view
.subckt sky130_fd_sc_hd__decap_4 VGND VNB VPB VPWR
.ends

* Black-box entry subcircuit for sky130_fd_sc_hd__and2b_1 abstract view
.subckt sky130_fd_sc_hd__and2b_1 A_N B VGND VNB VPB VPWR X
.ends

* Black-box entry subcircuit for sky130_fd_sc_hd__inv_2 abstract view
.subckt sky130_fd_sc_hd__inv_2 A VGND VNB VPB VPWR Y
.ends

* Black-box entry subcircuit for sky130_fd_sc_hd__buf_2 abstract view
.subckt sky130_fd_sc_hd__buf_2 A VGND VNB VPB VPWR X
.ends

* Black-box entry subcircuit for sky130_fd_sc_hd__buf_1 abstract view
.subckt sky130_fd_sc_hd__buf_1 A VGND VNB VPB VPWR X
.ends

* Black-box entry subcircuit for sky130_fd_sc_hd__o21ai_1 abstract view
.subckt sky130_fd_sc_hd__o21ai_1 A1 A2 B1 VGND VNB VPB VPWR Y
.ends

* Black-box entry subcircuit for sky130_fd_sc_hd__clkbuf_1 abstract view
.subckt sky130_fd_sc_hd__clkbuf_1 A VGND VNB VPB VPWR X
.ends

* Black-box entry subcircuit for sky130_fd_sc_hd__a311o_1 abstract view
.subckt sky130_fd_sc_hd__a311o_1 A1 A2 A3 B1 C1 VGND VNB VPB VPWR X
.ends

* Black-box entry subcircuit for sky130_fd_sc_hd__and3_1 abstract view
.subckt sky130_fd_sc_hd__and3_1 A B C VGND VNB VPB VPWR X
.ends

* Black-box entry subcircuit for sky130_fd_sc_hd__nor2_1 abstract view
.subckt sky130_fd_sc_hd__nor2_1 A B VGND VNB VPB VPWR Y
.ends

* Black-box entry subcircuit for sky130_fd_sc_hd__o211a_1 abstract view
.subckt sky130_fd_sc_hd__o211a_1 A1 A2 B1 C1 VGND VNB VPB VPWR X
.ends

* Black-box entry subcircuit for sky130_fd_sc_hd__o221a_2 abstract view
.subckt sky130_fd_sc_hd__o221a_2 A1 A2 B1 B2 C1 VGND VNB VPB VPWR X
.ends

.subckt Maximum_Path_Memory VGND VPWR prev_00[0] prev_00[1] prev_00[2] prev_00[3]
+ prev_01[0] prev_01[1] prev_01[2] prev_01[3] prev_10[0] prev_10[1] prev_10[2] prev_10[3]
+ prev_11[0] prev_11[1] prev_11[2] prev_11[3] winner_state[0] winner_state[1]
XFILLER_13_166 VGND VGND VPWR VPWR sky130_fd_sc_hd__fill_2
XFILLER_9_137 VPWR VGND VPWR VGND sky130_ef_sc_hd__decap_12
XTAP_TAPCELL_ROW_8_55 VGND VPWR sky130_fd_sc_hd__tapvpwrvgnd_1
XFILLER_10_103 VGND VGND VPWR VPWR sky130_fd_sc_hd__decap_6
X_66_ _26_ _15_ VGND VGND VPWR VPWR _27_ sky130_fd_sc_hd__nand2b_1
XFILLER_2_165 VPWR VGND VPWR VGND sky130_ef_sc_hd__decap_12
XFILLER_2_121 VPWR VGND VPWR VGND sky130_ef_sc_hd__decap_12
XFILLER_0_57 VPWR VGND VPWR VGND sky130_ef_sc_hd__decap_12
XFILLER_9_55 VGND VGND VPWR VPWR sky130_fd_sc_hd__fill_1
X_49_ net4 net8 VGND VGND VPWR VPWR _10_ sky130_fd_sc_hd__or2_1
XFILLER_13_101 VGND VGND VPWR VPWR sky130_fd_sc_hd__fill_2
XFILLER_3_57 VPWR VGND VPWR VGND sky130_ef_sc_hd__decap_12
XFILLER_9_105 VGND VGND VPWR VPWR sky130_fd_sc_hd__decap_6
XFILLER_9_149 VPWR VGND VPWR VGND sky130_ef_sc_hd__decap_12
XTAP_TAPCELL_ROW_8_56 VGND VPWR sky130_fd_sc_hd__tapvpwrvgnd_1
X_65_ net9 net13 _25_ VGND VGND VPWR VPWR _26_ sky130_fd_sc_hd__mux2_1
XPHY_EDGE_ROW_12_Right_12 VGND VGND VPWR VPWR sky130_fd_sc_hd__decap_3
XFILLER_2_177 VPWR VGND VPWR VGND sky130_ef_sc_hd__decap_12
XFILLER_2_133 VGND VGND VPWR VPWR sky130_fd_sc_hd__decap_6
XFILLER_0_69 VPWR VGND VPWR VGND sky130_ef_sc_hd__decap_12
X_48_ net4 net8 VGND VGND VPWR VPWR _09_ sky130_fd_sc_hd__nand2_1
XTAP_TAPCELL_ROW_5_46 VGND VPWR sky130_fd_sc_hd__tapvpwrvgnd_1
XPHY_EDGE_ROW_12_Left_26 VGND VGND VPWR VPWR sky130_fd_sc_hd__decap_3
XPHY_EDGE_ROW_6_Right_6 VGND VGND VPWR VPWR sky130_fd_sc_hd__decap_3
XFILLER_13_113 VGND VGND VPWR VPWR sky130_fd_sc_hd__decap_3
XFILLER_3_69 VPWR VGND VPWR VGND sky130_ef_sc_hd__decap_12
XPHY_EDGE_ROW_0_Left_14 VGND VGND VPWR VPWR sky130_fd_sc_hd__decap_3
XFILLER_6_109 VPWR VGND VPWR VGND sky130_ef_sc_hd__decap_12
XTAP_TAPCELL_ROW_12_67 VGND VPWR sky130_fd_sc_hd__tapvpwrvgnd_1
XTAP_TAPCELL_ROW_8_57 VGND VPWR sky130_fd_sc_hd__tapvpwrvgnd_1
X_64_ net12 _00_ _19_ _23_ _24_ VGND VGND VPWR VPWR _25_ sky130_fd_sc_hd__o221a_1
XFILLER_3_3 VPWR VGND VPWR VGND sky130_ef_sc_hd__decap_12
XFILLER_2_189 VGND VGND VPWR VPWR sky130_fd_sc_hd__fill_1
XFILLER_0_15 VPWR VGND VPWR VGND sky130_ef_sc_hd__decap_12
XFILLER_9_57 VPWR VGND VPWR VGND sky130_ef_sc_hd__decap_12
X_47_ _06_ _07_ _05_ VGND VGND VPWR VPWR _08_ sky130_fd_sc_hd__a21oi_1
XTAP_TAPCELL_ROW_5_47 VGND VPWR sky130_fd_sc_hd__tapvpwrvgnd_1
XTAP_TAPCELL_ROW_2_37 VGND VPWR sky130_fd_sc_hd__tapvpwrvgnd_1
XFILLER_13_158 VGND VGND VPWR VPWR sky130_fd_sc_hd__decap_8
XFILLER_3_15 VPWR VGND VPWR VGND sky130_ef_sc_hd__decap_12
XFILLER_10_139 VGND VGND VPWR VPWR sky130_fd_sc_hd__fill_1
XTAP_TAPCELL_ROW_12_68 VGND VPWR sky130_fd_sc_hd__tapvpwrvgnd_1
X_63_ _20_ _21_ net11 _02_ VGND VGND VPWR VPWR _24_ sky130_fd_sc_hd__a211o_1
XFILLER_0_27 VGND VGND VPWR VPWR sky130_fd_sc_hd__fill_1
XFILLER_9_69 VPWR VGND VPWR VGND sky130_ef_sc_hd__decap_12
X_46_ net5 net1 VGND VGND VPWR VPWR _07_ sky130_fd_sc_hd__nand2b_1
XTAP_TAPCELL_ROW_5_48 VGND VPWR sky130_fd_sc_hd__tapvpwrvgnd_1
XFILLER_1_81 VPWR VGND VPWR VGND sky130_ef_sc_hd__decap_12
XFILLER_6_15 VPWR VGND VPWR VGND sky130_ef_sc_hd__decap_12
XFILLER_13_6 VGND VGND VPWR VPWR sky130_fd_sc_hd__decap_6
XTAP_TAPCELL_ROW_2_38 VGND VPWR sky130_fd_sc_hd__tapvpwrvgnd_1
XFILLER_11_3 VPWR VGND VPWR VGND sky130_ef_sc_hd__decap_12
XFILLER_3_27 VPWR VGND VPWR VGND sky130_ef_sc_hd__decap_12
XFILLER_8_141 VPWR VGND VPWR VGND sky130_ef_sc_hd__decap_12
XTAP_TAPCELL_ROW_12_69 VGND VPWR sky130_fd_sc_hd__tapvpwrvgnd_1
XFILLER_5_111 VGND VGND VPWR VPWR sky130_fd_sc_hd__fill_1
X_62_ _20_ _21_ _22_ VGND VGND VPWR VPWR _23_ sky130_fd_sc_hd__a21o_1
XFILLER_9_15 VPWR VGND VPWR VGND sky130_ef_sc_hd__decap_12
X_45_ net6 net2 VGND VGND VPWR VPWR _06_ sky130_fd_sc_hd__nand2b_1
XFILLER_1_93 VPWR VGND VPWR VGND sky130_ef_sc_hd__decap_12
XFILLER_6_27 VGND VGND VPWR VPWR sky130_fd_sc_hd__fill_1
XFILLER_10_91 VPWR VGND VPWR VGND sky130_ef_sc_hd__decap_12
XTAP_TAPCELL_ROW_2_39 VGND VPWR sky130_fd_sc_hd__tapvpwrvgnd_1
XFILLER_7_81 VPWR VGND VPWR VGND sky130_ef_sc_hd__decap_12
XFILLER_13_138 VGND VGND VPWR VPWR sky130_fd_sc_hd__fill_2
XFILLER_3_39 VPWR VGND VPWR VGND sky130_ef_sc_hd__decap_12
XFILLER_8_153 VPWR VGND VPWR VGND sky130_ef_sc_hd__decap_12
XFILLER_12_160 VPWR VGND VPWR VGND sky130_ef_sc_hd__decap_12
XFILLER_12_15 VPWR VGND VPWR VGND sky130_ef_sc_hd__decap_12
XFILLER_12_59 VGND VGND VPWR VPWR sky130_fd_sc_hd__fill_1
XFILLER_5_167 VGND VGND VPWR VPWR sky130_fd_sc_hd__fill_1
XFILLER_5_189 VGND VGND VPWR VPWR sky130_fd_sc_hd__fill_1
X_61_ net11 net15 VGND VGND VPWR VPWR _22_ sky130_fd_sc_hd__xor2_1
XPHY_EDGE_ROW_4_Left_18 VGND VGND VPWR VPWR sky130_fd_sc_hd__decap_3
XFILLER_13_80 VGND VGND VPWR VPWR sky130_fd_sc_hd__fill_1
XFILLER_0_29 VPWR VGND VPWR VGND sky130_ef_sc_hd__decap_12
XFILLER_9_27 VPWR VGND VPWR VGND sky130_ef_sc_hd__decap_12
XFILLER_1_181 VGND VGND VPWR VPWR sky130_fd_sc_hd__decap_4
X_44_ net2 net6 VGND VGND VPWR VPWR _05_ sky130_fd_sc_hd__and2b_1
XFILLER_1_3 VPWR VGND VPWR VGND sky130_ef_sc_hd__decap_12
XPHY_EDGE_ROW_7_Left_21 VGND VGND VPWR VPWR sky130_fd_sc_hd__decap_3
XFILLER_7_93 VPWR VGND VPWR VGND sky130_ef_sc_hd__decap_12
XFILLER_13_128 VGND VGND VPWR VPWR sky130_fd_sc_hd__fill_1
XFILLER_13_106 VGND VGND VPWR VPWR sky130_fd_sc_hd__decap_6
XFILLER_8_121 VPWR VGND VPWR VGND sky130_ef_sc_hd__decap_12
XFILLER_8_165 VPWR VGND VPWR VGND sky130_ef_sc_hd__decap_12
XFILLER_12_172 VPWR VGND VPWR VGND sky130_ef_sc_hd__decap_12
XFILLER_10_109 VGND VGND VPWR VPWR sky130_fd_sc_hd__fill_1
XFILLER_12_27 VGND VGND VPWR VPWR sky130_fd_sc_hd__fill_1
XFILLER_5_113 VPWR VGND VPWR VGND sky130_ef_sc_hd__decap_12
X_60_ net12 net16 VGND VGND VPWR VPWR _21_ sky130_fd_sc_hd__or2_1
XFILLER_4_83 VGND VGND VPWR VPWR sky130_fd_sc_hd__fill_1
XFILLER_9_39 VPWR VGND VPWR VGND sky130_ef_sc_hd__decap_12
XTAP_TAPCELL_ROW_13_70 VGND VPWR sky130_fd_sc_hd__tapvpwrvgnd_1
XTAP_TAPCELL_ROW_9_60 VGND VPWR sky130_fd_sc_hd__tapvpwrvgnd_1
X_43_ net7 VGND VGND VPWR VPWR _04_ sky130_fd_sc_hd__inv_2
XFILLER_1_51 VGND VGND VPWR VPWR sky130_fd_sc_hd__decap_4
XFILLER_6_29 VPWR VGND VPWR VGND sky130_ef_sc_hd__decap_12
XTAP_TAPCELL_ROW_6_50 VGND VPWR sky130_fd_sc_hd__tapvpwrvgnd_1
XPHY_EDGE_ROW_1_Right_1 VGND VGND VPWR VPWR sky130_fd_sc_hd__decap_3
XTAP_TAPCELL_ROW_3_40 VGND VPWR sky130_fd_sc_hd__tapvpwrvgnd_1
XFILLER_8_133 VGND VGND VPWR VPWR sky130_fd_sc_hd__decap_6
XFILLER_8_177 VPWR VGND VPWR VGND sky130_ef_sc_hd__decap_12
XFILLER_12_184 VGND VGND VPWR VPWR sky130_fd_sc_hd__fill_2
XFILLER_5_125 VPWR VGND VPWR VGND sky130_ef_sc_hd__decap_12
XFILLER_5_169 VPWR VGND VPWR VGND sky130_ef_sc_hd__decap_12
XFILLER_2_139 VGND VGND VPWR VPWR sky130_fd_sc_hd__fill_1
XTAP_TAPCELL_ROW_13_71 VGND VPWR sky130_fd_sc_hd__tapvpwrvgnd_1
X_42_ net8 VGND VGND VPWR VPWR _03_ sky130_fd_sc_hd__inv_2
XFILLER_1_161 VGND VGND VPWR VPWR sky130_fd_sc_hd__decap_6
XTAP_TAPCELL_ROW_0_30 VGND VPWR sky130_fd_sc_hd__tapvpwrvgnd_1
XTAP_TAPCELL_ROW_10_61 VGND VPWR sky130_fd_sc_hd__tapvpwrvgnd_1
XFILLER_10_83 VGND VGND VPWR VPWR sky130_fd_sc_hd__fill_1
XTAP_TAPCELL_ROW_6_51 VGND VPWR sky130_fd_sc_hd__tapvpwrvgnd_1
XFILLER_7_51 VGND VGND VPWR VPWR sky130_fd_sc_hd__decap_4
XTAP_TAPCELL_ROW_3_41 VGND VPWR sky130_fd_sc_hd__tapvpwrvgnd_1
XFILLER_8_189 VGND VGND VPWR VPWR sky130_fd_sc_hd__fill_1
XFILLER_12_29 VPWR VGND VPWR VGND sky130_ef_sc_hd__decap_12
XFILLER_5_137 VPWR VGND VPWR VGND sky130_ef_sc_hd__decap_12
XFILLER_4_41 VPWR VGND VPWR VGND sky130_ef_sc_hd__decap_12
XFILLER_4_85 VPWR VGND VPWR VGND sky130_ef_sc_hd__decap_12
XTAP_TAPCELL_ROW_13_72 VGND VPWR sky130_fd_sc_hd__tapvpwrvgnd_1
XTAP_TAPCELL_ROW_0_31 VGND VPWR sky130_fd_sc_hd__tapvpwrvgnd_1
X_41_ net15 VGND VGND VPWR VPWR _02_ sky130_fd_sc_hd__inv_2
XTAP_TAPCELL_ROW_10_62 VGND VPWR sky130_fd_sc_hd__tapvpwrvgnd_1
Xoutput17 net17 VGND VGND VPWR VPWR winner_state[0] sky130_fd_sc_hd__buf_2
XTAP_TAPCELL_ROW_3_42 VGND VPWR sky130_fd_sc_hd__tapvpwrvgnd_1
XFILLER_5_105 VGND VGND VPWR VPWR sky130_fd_sc_hd__decap_6
XFILLER_5_149 VPWR VGND VPWR VGND sky130_ef_sc_hd__decap_12
XTAP_TAPCELL_ROW_13_73 VGND VPWR sky130_fd_sc_hd__tapvpwrvgnd_1
XFILLER_4_53 VPWR VGND VPWR VGND sky130_ef_sc_hd__decap_12
XFILLER_4_97 VPWR VGND VPWR VGND sky130_ef_sc_hd__decap_12
XFILLER_1_185 VGND VGND VPWR VPWR sky130_fd_sc_hd__fill_1
XTAP_TAPCELL_ROW_0_32 VGND VPWR sky130_fd_sc_hd__tapvpwrvgnd_1
X_40_ net11 VGND VGND VPWR VPWR _01_ sky130_fd_sc_hd__inv_2
XTAP_TAPCELL_ROW_10_63 VGND VPWR sky130_fd_sc_hd__tapvpwrvgnd_1
XFILLER_10_41 VPWR VGND VPWR VGND sky130_ef_sc_hd__decap_12
XFILLER_10_85 VGND VGND VPWR VPWR sky130_fd_sc_hd__decap_3
XPHY_EDGE_ROW_11_Left_25 VGND VGND VPWR VPWR sky130_fd_sc_hd__decap_3
Xoutput18 net18 VGND VGND VPWR VPWR winner_state[1] sky130_fd_sc_hd__buf_2
XPHY_EDGE_ROW_5_Right_5 VGND VGND VPWR VPWR sky130_fd_sc_hd__decap_3
XFILLER_2_109 VPWR VGND VPWR VGND sky130_ef_sc_hd__decap_12
XFILLER_4_65 VPWR VGND VPWR VGND sky130_ef_sc_hd__decap_12
XTAP_TAPCELL_ROW_13_74 VGND VPWR sky130_fd_sc_hd__tapvpwrvgnd_1
XFILLER_13_85 VGND VGND VPWR VPWR sky130_fd_sc_hd__fill_2
XTAP_TAPCELL_ROW_0_33 VGND VPWR sky130_fd_sc_hd__tapvpwrvgnd_1
XFILLER_13_41 VGND VGND VPWR VPWR sky130_fd_sc_hd__decap_8
XFILLER_13_63 VGND VGND VPWR VPWR sky130_fd_sc_hd__fill_1
XFILLER_1_55 VGND VGND VPWR VPWR sky130_fd_sc_hd__fill_1
XFILLER_10_53 VPWR VGND VPWR VGND sky130_ef_sc_hd__decap_12
XPHY_EDGE_ROW_11_Right_11 VGND VGND VPWR VPWR sky130_fd_sc_hd__decap_3
XFILLER_7_181 VGND VGND VPWR VPWR sky130_fd_sc_hd__decap_8
XFILLER_4_77 VGND VGND VPWR VPWR sky130_fd_sc_hd__decap_6
XTAP_TAPCELL_ROW_13_75 VGND VPWR sky130_fd_sc_hd__tapvpwrvgnd_1
XFILLER_10_65 VPWR VGND VPWR VGND sky130_ef_sc_hd__decap_12
XFILLER_7_55 VGND VGND VPWR VPWR sky130_fd_sc_hd__fill_1
XFILLER_12_101 VGND VGND VPWR VPWR sky130_fd_sc_hd__fill_2
XFILLER_12_112 VGND VGND VPWR VPWR sky130_fd_sc_hd__fill_1
XFILLER_4_141 VPWR VGND VPWR VGND sky130_ef_sc_hd__decap_12
XFILLER_1_111 VGND VGND VPWR VPWR sky130_fd_sc_hd__fill_1
XFILLER_8_3 VPWR VGND VPWR VGND sky130_ef_sc_hd__decap_12
XFILLER_13_54 VGND VGND VPWR VPWR sky130_fd_sc_hd__fill_2
XFILLER_13_76 VGND VGND VPWR VPWR sky130_fd_sc_hd__fill_1
XFILLER_1_57 VPWR VGND VPWR VGND sky130_ef_sc_hd__decap_12
XFILLER_10_77 VGND VGND VPWR VPWR sky130_fd_sc_hd__decap_6
Xinput1 prev_00[0] VGND VGND VPWR VPWR net1 sky130_fd_sc_hd__buf_1
XFILLER_8_139 VGND VGND VPWR VPWR sky130_fd_sc_hd__fill_1
XFILLER_7_161 VGND VGND VPWR VPWR sky130_fd_sc_hd__decap_6
XPHY_EDGE_ROW_9_Right_9 VGND VGND VPWR VPWR sky130_fd_sc_hd__decap_3
XFILLER_4_153 VPWR VGND VPWR VGND sky130_ef_sc_hd__decap_12
XFILLER_1_167 VGND VGND VPWR VPWR sky130_fd_sc_hd__fill_1
XPHY_EDGE_ROW_3_Left_17 VGND VGND VPWR VPWR sky130_fd_sc_hd__decap_3
XFILLER_1_69 VPWR VGND VPWR VGND sky130_ef_sc_hd__decap_12
X_79_ _14_ _25_ net18 VGND VGND VPWR VPWR net17 sky130_fd_sc_hd__mux2_1
Xinput2 prev_00[1] VGND VGND VPWR VPWR net2 sky130_fd_sc_hd__buf_1
XPHY_EDGE_ROW_6_Left_20 VGND VGND VPWR VPWR sky130_fd_sc_hd__decap_3
XFILLER_7_57 VPWR VGND VPWR VGND sky130_ef_sc_hd__decap_12
XFILLER_4_121 VPWR VGND VPWR VGND sky130_ef_sc_hd__decap_12
XFILLER_4_165 VPWR VGND VPWR VGND sky130_ef_sc_hd__decap_12
XFILLER_1_113 VPWR VGND VPWR VGND sky130_ef_sc_hd__decap_12
XFILLER_13_23 VGND VGND VPWR VPWR sky130_fd_sc_hd__fill_2
XFILLER_1_15 VPWR VGND VPWR VGND sky130_ef_sc_hd__decap_12
X_78_ _34_ _37_ _38_ VGND VGND VPWR VPWR net18 sky130_fd_sc_hd__o21ai_1
Xinput3 prev_00[2] VGND VGND VPWR VPWR net3 sky130_fd_sc_hd__clkbuf_1
XFILLER_7_69 VPWR VGND VPWR VGND sky130_ef_sc_hd__decap_12
XPHY_EDGE_ROW_0_Right_0 VGND VGND VPWR VPWR sky130_fd_sc_hd__decap_3
XFILLER_4_15 VPWR VGND VPWR VGND sky130_ef_sc_hd__decap_12
XFILLER_4_133 VGND VGND VPWR VPWR sky130_fd_sc_hd__decap_6
XFILLER_4_177 VPWR VGND VPWR VGND sky130_ef_sc_hd__decap_12
XFILLER_1_125 VPWR VGND VPWR VGND sky130_ef_sc_hd__decap_12
XFILLER_13_57 VGND VGND VPWR VPWR sky130_fd_sc_hd__decap_6
XFILLER_1_169 VPWR VGND VPWR VGND sky130_ef_sc_hd__decap_12
XTAP_TAPCELL_ROW_9_58 VGND VPWR sky130_fd_sc_hd__tapvpwrvgnd_1
XFILLER_1_27 VPWR VGND VPWR VGND sky130_ef_sc_hd__decap_12
XFILLER_6_3 VPWR VGND VPWR VGND sky130_ef_sc_hd__decap_12
X_77_ _09_ _20_ VGND VGND VPWR VPWR _38_ sky130_fd_sc_hd__nand2b_1
Xinput4 prev_00[3] VGND VGND VPWR VPWR net4 sky130_fd_sc_hd__buf_1
XFILLER_7_15 VPWR VGND VPWR VGND sky130_ef_sc_hd__decap_12
XFILLER_8_109 VPWR VGND VPWR VGND sky130_ef_sc_hd__decap_12
XFILLER_4_27 VGND VGND VPWR VPWR sky130_fd_sc_hd__fill_1
XFILLER_4_189 VGND VGND VPWR VPWR sky130_fd_sc_hd__fill_1
XFILLER_1_137 VPWR VGND VPWR VGND sky130_ef_sc_hd__decap_12
XTAP_TAPCELL_ROW_0_28 VGND VPWR sky130_fd_sc_hd__tapvpwrvgnd_1
XTAP_TAPCELL_ROW_9_59 VGND VPWR sky130_fd_sc_hd__tapvpwrvgnd_1
XFILLER_0_181 VGND VGND VPWR VPWR sky130_fd_sc_hd__decap_8
XFILLER_5_81 VPWR VGND VPWR VGND sky130_ef_sc_hd__decap_12
XFILLER_1_39 VPWR VGND VPWR VGND sky130_ef_sc_hd__decap_12
X_76_ _30_ _32_ _33_ _35_ _36_ VGND VGND VPWR VPWR _37_ sky130_fd_sc_hd__a311o_1
Xinput5 prev_01[0] VGND VGND VPWR VPWR net5 sky130_fd_sc_hd__clkbuf_1
XFILLER_10_15 VPWR VGND VPWR VGND sky130_ef_sc_hd__decap_12
XTAP_TAPCELL_ROW_6_49 VGND VPWR sky130_fd_sc_hd__tapvpwrvgnd_1
X_59_ net12 net16 VGND VGND VPWR VPWR _20_ sky130_fd_sc_hd__nand2_1
XFILLER_7_27 VPWR VGND VPWR VGND sky130_ef_sc_hd__decap_12
XFILLER_13_15 VGND VGND VPWR VPWR sky130_fd_sc_hd__decap_8
XFILLER_1_149 VPWR VGND VPWR VGND sky130_ef_sc_hd__decap_12
XFILLER_1_105 VGND VGND VPWR VPWR sky130_fd_sc_hd__decap_6
XTAP_TAPCELL_ROW_0_29 VGND VPWR sky130_fd_sc_hd__tapvpwrvgnd_1
XFILLER_13_37 VGND VGND VPWR VPWR sky130_fd_sc_hd__fill_1
XFILLER_5_93 VPWR VGND VPWR VGND sky130_ef_sc_hd__decap_12
XFILLER_10_27 VGND VGND VPWR VPWR sky130_fd_sc_hd__fill_1
X_75_ net12 net16 _09_ VGND VGND VPWR VPWR _36_ sky130_fd_sc_hd__and3_1
Xinput6 prev_01[1] VGND VGND VPWR VPWR net6 sky130_fd_sc_hd__clkbuf_1
X_58_ _17_ _18_ _16_ VGND VGND VPWR VPWR _19_ sky130_fd_sc_hd__a21oi_1
XFILLER_2_83 VGND VGND VPWR VPWR sky130_fd_sc_hd__fill_1
XFILLER_7_39 VPWR VGND VPWR VGND sky130_ef_sc_hd__decap_12
XFILLER_11_81 VGND VGND VPWR VPWR sky130_fd_sc_hd__fill_1
XPHY_EDGE_ROW_10_Left_24 VGND VGND VPWR VPWR sky130_fd_sc_hd__decap_3
XFILLER_7_111 VGND VGND VPWR VPWR sky130_fd_sc_hd__fill_1
XPHY_EDGE_ROW_4_Right_4 VGND VGND VPWR VPWR sky130_fd_sc_hd__decap_3
XFILLER_4_29 VPWR VGND VPWR VGND sky130_ef_sc_hd__decap_12
XFILLER_13_49 VGND VGND VPWR VPWR sky130_fd_sc_hd__fill_2
X_74_ _28_ _29_ VGND VGND VPWR VPWR _35_ sky130_fd_sc_hd__nor2_1
Xinput7 prev_01[2] VGND VGND VPWR VPWR net7 sky130_fd_sc_hd__clkbuf_1
XFILLER_4_3 VPWR VGND VPWR VGND sky130_ef_sc_hd__decap_12
X_57_ net13 net9 VGND VGND VPWR VPWR _18_ sky130_fd_sc_hd__nand2b_1
Xinput10 prev_10[1] VGND VGND VPWR VPWR net10 sky130_fd_sc_hd__clkbuf_1
XFILLER_11_152 VPWR VGND VPWR VGND sky130_ef_sc_hd__decap_12
XFILLER_11_185 VGND VGND VPWR VPWR sky130_fd_sc_hd__decap_4
XFILLER_7_167 VGND VGND VPWR VPWR sky130_fd_sc_hd__fill_1
XFILLER_7_189 VGND VGND VPWR VPWR sky130_fd_sc_hd__fill_1
XFILLER_8_83 VGND VGND VPWR VPWR sky130_fd_sc_hd__fill_1
XFILLER_3_181 VGND VGND VPWR VPWR sky130_fd_sc_hd__decap_8
XFILLER_5_51 VGND VGND VPWR VPWR sky130_fd_sc_hd__decap_4
Xinput8 prev_01[3] VGND VGND VPWR VPWR net8 sky130_fd_sc_hd__buf_1
X_73_ _32_ _33_ _27_ _30_ VGND VGND VPWR VPWR _34_ sky130_fd_sc_hd__o211a_1
XFILLER_10_29 VPWR VGND VPWR VGND sky130_ef_sc_hd__decap_12
X_56_ net14 net10 VGND VGND VPWR VPWR _17_ sky130_fd_sc_hd__nand2b_1
XFILLER_2_85 VPWR VGND VPWR VGND sky130_ef_sc_hd__decap_12
XFILLER_2_41 VPWR VGND VPWR VGND sky130_ef_sc_hd__decap_12
Xinput11 prev_10[2] VGND VGND VPWR VPWR net11 sky130_fd_sc_hd__buf_1
X_39_ net16 VGND VGND VPWR VPWR _00_ sky130_fd_sc_hd__inv_2
XFILLER_7_113 VPWR VGND VPWR VGND sky130_ef_sc_hd__decap_12
XFILLER_11_164 VGND VGND VPWR VPWR sky130_fd_sc_hd__decap_4
XFILLER_11_175 VGND VGND VPWR VPWR sky130_fd_sc_hd__fill_1
XFILLER_12_3 VPWR VGND VPWR VGND sky130_ef_sc_hd__decap_12
XFILLER_13_29 VGND VGND VPWR VPWR sky130_fd_sc_hd__decap_8
XFILLER_0_141 VPWR VGND VPWR VGND sky130_ef_sc_hd__decap_12
Xinput9 prev_10[0] VGND VGND VPWR VPWR net9 sky130_fd_sc_hd__clkbuf_1
X_72_ net10 net14 _25_ VGND VGND VPWR VPWR _33_ sky130_fd_sc_hd__mux2_1
XFILLER_2_97 VPWR VGND VPWR VGND sky130_ef_sc_hd__decap_12
XFILLER_2_53 VPWR VGND VPWR VGND sky130_ef_sc_hd__decap_12
XPHY_EDGE_ROW_10_Right_10 VGND VGND VPWR VPWR sky130_fd_sc_hd__decap_3
X_55_ net10 net14 VGND VGND VPWR VPWR _16_ sky130_fd_sc_hd__and2b_1
XFILLER_11_51 VGND VGND VPWR VPWR sky130_fd_sc_hd__decap_4
Xinput12 prev_10[3] VGND VGND VPWR VPWR net12 sky130_fd_sc_hd__buf_1
XTAP_TAPCELL_ROW_7_52 VGND VPWR sky130_fd_sc_hd__tapvpwrvgnd_1
XFILLER_7_125 VPWR VGND VPWR VGND sky130_ef_sc_hd__decap_12
XFILLER_7_169 VPWR VGND VPWR VGND sky130_ef_sc_hd__decap_12
XFILLER_8_41 VPWR VGND VPWR VGND sky130_ef_sc_hd__decap_12
XFILLER_8_85 VPWR VGND VPWR VGND sky130_ef_sc_hd__decap_12
XFILLER_4_139 VGND VGND VPWR VPWR sky130_fd_sc_hd__fill_1
XFILLER_3_161 VGND VGND VPWR VPWR sky130_fd_sc_hd__decap_6
XPHY_EDGE_ROW_8_Right_8 VGND VGND VPWR VPWR sky130_fd_sc_hd__decap_3
XFILLER_0_153 VPWR VGND VPWR VGND sky130_ef_sc_hd__decap_12
X_71_ net2 _14_ _31_ VGND VGND VPWR VPWR _32_ sky130_fd_sc_hd__o21ai_1
XPHY_EDGE_ROW_2_Left_16 VGND VGND VPWR VPWR sky130_fd_sc_hd__decap_3
XFILLER_2_65 VPWR VGND VPWR VGND sky130_ef_sc_hd__decap_12
X_54_ net1 net5 _14_ VGND VGND VPWR VPWR _15_ sky130_fd_sc_hd__mux2_1
Xinput13 prev_11[0] VGND VGND VPWR VPWR net13 sky130_fd_sc_hd__clkbuf_1
XFILLER_2_3 VPWR VGND VPWR VGND sky130_ef_sc_hd__decap_12
XTAP_TAPCELL_ROW_7_53 VGND VPWR sky130_fd_sc_hd__tapvpwrvgnd_1
XFILLER_7_137 VPWR VGND VPWR VGND sky130_ef_sc_hd__decap_12
XFILLER_11_111 VGND VGND VPWR VPWR sky130_fd_sc_hd__fill_1
XFILLER_8_53 VPWR VGND VPWR VGND sky130_ef_sc_hd__decap_12
XFILLER_8_97 VPWR VGND VPWR VGND sky130_ef_sc_hd__decap_12
XTAP_TAPCELL_ROW_4_43 VGND VPWR sky130_fd_sc_hd__tapvpwrvgnd_1
XFILLER_0_165 VGND VGND VPWR VPWR sky130_fd_sc_hd__decap_3
X_70_ net6 _14_ VGND VGND VPWR VPWR _31_ sky130_fd_sc_hd__nand2b_1
XFILLER_2_77 VGND VGND VPWR VPWR sky130_fd_sc_hd__decap_6
X_53_ net4 _03_ _08_ _12_ _13_ VGND VGND VPWR VPWR _14_ sky130_fd_sc_hd__o221a_2
XTAP_TAPCELL_ROW_11_64 VGND VPWR sky130_fd_sc_hd__tapvpwrvgnd_1
Xinput14 prev_11[1] VGND VGND VPWR VPWR net14 sky130_fd_sc_hd__buf_1
XTAP_TAPCELL_ROW_7_54 VGND VPWR sky130_fd_sc_hd__tapvpwrvgnd_1
XFILLER_7_105 VGND VGND VPWR VPWR sky130_fd_sc_hd__decap_6
XFILLER_7_149 VPWR VGND VPWR VGND sky130_ef_sc_hd__decap_12
XFILLER_11_189 VGND VGND VPWR VPWR sky130_fd_sc_hd__fill_1
XFILLER_8_65 VPWR VGND VPWR VGND sky130_ef_sc_hd__decap_12
XTAP_TAPCELL_ROW_4_44 VGND VPWR sky130_fd_sc_hd__tapvpwrvgnd_1
XFILLER_5_55 VGND VGND VPWR VPWR sky130_fd_sc_hd__fill_1
XFILLER_10_3 VPWR VGND VPWR VGND sky130_ef_sc_hd__decap_12
XTAP_TAPCELL_ROW_1_34 VGND VPWR sky130_fd_sc_hd__tapvpwrvgnd_1
X_52_ _09_ _10_ net3 _04_ VGND VGND VPWR VPWR _13_ sky130_fd_sc_hd__a211o_1
XTAP_TAPCELL_ROW_11_65 VGND VPWR sky130_fd_sc_hd__tapvpwrvgnd_1
XFILLER_11_65 VGND VGND VPWR VPWR sky130_fd_sc_hd__decap_3
XFILLER_11_98 VGND VGND VPWR VPWR sky130_fd_sc_hd__fill_2
Xinput15 prev_11[2] VGND VGND VPWR VPWR net15 sky130_fd_sc_hd__buf_1
XFILLER_8_77 VGND VGND VPWR VPWR sky130_fd_sc_hd__decap_6
XFILLER_4_109 VPWR VGND VPWR VGND sky130_ef_sc_hd__decap_12
XTAP_TAPCELL_ROW_4_45 VGND VPWR sky130_fd_sc_hd__tapvpwrvgnd_1
XFILLER_0_189 VGND VGND VPWR VPWR sky130_fd_sc_hd__fill_1
XTAP_TAPCELL_ROW_1_35 VGND VPWR sky130_fd_sc_hd__tapvpwrvgnd_1
X_51_ _09_ _10_ _11_ VGND VGND VPWR VPWR _12_ sky130_fd_sc_hd__a21o_1
XTAP_TAPCELL_ROW_11_66 VGND VPWR sky130_fd_sc_hd__tapvpwrvgnd_1
XFILLER_11_55 VGND VGND VPWR VPWR sky130_fd_sc_hd__fill_1
XFILLER_11_77 VGND VGND VPWR VPWR sky130_fd_sc_hd__decap_4
Xinput16 prev_11[3] VGND VGND VPWR VPWR net16 sky130_fd_sc_hd__buf_1
XFILLER_9_181 VGND VGND VPWR VPWR sky130_fd_sc_hd__decap_8
XFILLER_0_3 VPWR VGND VPWR VGND sky130_ef_sc_hd__decap_12
XFILLER_11_169 VGND VGND VPWR VPWR sky130_fd_sc_hd__decap_6
XPHY_EDGE_ROW_9_Left_23 VGND VGND VPWR VPWR sky130_fd_sc_hd__decap_3
XFILLER_0_113 VPWR VGND VPWR VGND sky130_ef_sc_hd__decap_12
XFILLER_5_57 VPWR VGND VPWR VGND sky130_ef_sc_hd__decap_12
XTAP_TAPCELL_ROW_1_36 VGND VPWR sky130_fd_sc_hd__tapvpwrvgnd_1
X_50_ net3 net7 VGND VGND VPWR VPWR _11_ sky130_fd_sc_hd__xor2_1
XFILLER_6_141 VPWR VGND VPWR VGND sky130_ef_sc_hd__decap_12
XFILLER_3_111 VGND VGND VPWR VPWR sky130_fd_sc_hd__fill_1
XPHY_EDGE_ROW_3_Right_3 VGND VGND VPWR VPWR sky130_fd_sc_hd__decap_3
XFILLER_0_169 VPWR VGND VPWR VGND sky130_ef_sc_hd__decap_12
XFILLER_0_125 VPWR VGND VPWR VGND sky130_ef_sc_hd__decap_12
XFILLER_5_69 VPWR VGND VPWR VGND sky130_ef_sc_hd__decap_12
XFILLER_2_15 VPWR VGND VPWR VGND sky130_ef_sc_hd__decap_12
XFILLER_11_57 VGND VGND VPWR VPWR sky130_fd_sc_hd__decap_8
XFILLER_9_161 VGND VGND VPWR VPWR sky130_fd_sc_hd__decap_6
XFILLER_11_105 VGND VGND VPWR VPWR sky130_fd_sc_hd__fill_1
XFILLER_11_138 VGND VGND VPWR VPWR sky130_fd_sc_hd__fill_2
XFILLER_6_153 VPWR VGND VPWR VGND sky130_ef_sc_hd__decap_12
XFILLER_3_167 VGND VGND VPWR VPWR sky130_fd_sc_hd__fill_1
XFILLER_3_189 VGND VGND VPWR VPWR sky130_fd_sc_hd__fill_1
XFILLER_0_81 VGND VGND VPWR VPWR sky130_fd_sc_hd__decap_3
XFILLER_0_137 VGND VGND VPWR VPWR sky130_fd_sc_hd__decap_3
XFILLER_5_15 VPWR VGND VPWR VGND sky130_ef_sc_hd__decap_12
XPHY_EDGE_ROW_13_Right_13 VGND VGND VPWR VPWR sky130_fd_sc_hd__decap_3
XFILLER_2_27 VGND VGND VPWR VPWR sky130_fd_sc_hd__fill_1
XFILLER_13_180 VGND VGND VPWR VPWR sky130_fd_sc_hd__fill_1
XFILLER_3_81 VPWR VGND VPWR VGND sky130_ef_sc_hd__decap_12
XFILLER_6_121 VPWR VGND VPWR VGND sky130_ef_sc_hd__decap_12
XFILLER_6_165 VPWR VGND VPWR VGND sky130_ef_sc_hd__decap_12
XFILLER_8_15 VPWR VGND VPWR VGND sky130_ef_sc_hd__decap_12
XFILLER_3_113 VPWR VGND VPWR VGND sky130_ef_sc_hd__decap_12
XFILLER_5_27 VPWR VGND VPWR VGND sky130_ef_sc_hd__decap_12
XFILLER_9_3 VPWR VGND VPWR VGND sky130_ef_sc_hd__decap_12
XFILLER_11_15 VPWR VGND VPWR VGND sky130_ef_sc_hd__decap_12
XFILLER_3_93 VPWR VGND VPWR VGND sky130_ef_sc_hd__decap_12
XFILLER_6_133 VGND VGND VPWR VPWR sky130_fd_sc_hd__decap_6
XFILLER_6_177 VPWR VGND VPWR VGND sky130_ef_sc_hd__decap_12
XFILLER_8_27 VGND VGND VPWR VPWR sky130_fd_sc_hd__fill_1
XFILLER_12_80 VGND VGND VPWR VPWR sky130_fd_sc_hd__fill_1
XFILLER_3_125 VPWR VGND VPWR VGND sky130_ef_sc_hd__decap_12
XFILLER_3_169 VPWR VGND VPWR VGND sky130_ef_sc_hd__decap_12
XPHY_EDGE_ROW_13_Left_27 VGND VGND VPWR VPWR sky130_fd_sc_hd__decap_3
XFILLER_9_81 VPWR VGND VPWR VGND sky130_ef_sc_hd__decap_12
XFILLER_5_39 VPWR VGND VPWR VGND sky130_ef_sc_hd__decap_12
XPHY_EDGE_ROW_7_Right_7 VGND VGND VPWR VPWR sky130_fd_sc_hd__decap_3
XFILLER_2_29 VPWR VGND VPWR VGND sky130_ef_sc_hd__decap_12
XPHY_EDGE_ROW_1_Left_15 VGND VGND VPWR VPWR sky130_fd_sc_hd__decap_3
XFILLER_11_27 VPWR VGND VPWR VGND sky130_ef_sc_hd__decap_12
XFILLER_10_141 VPWR VGND VPWR VGND sky130_ef_sc_hd__decap_12
XFILLER_6_189 VGND VGND VPWR VPWR sky130_fd_sc_hd__fill_1
XFILLER_3_137 VPWR VGND VPWR VGND sky130_ef_sc_hd__decap_12
XFILLER_9_93 VPWR VGND VPWR VGND sky130_ef_sc_hd__decap_12
XFILLER_6_83 VGND VGND VPWR VPWR sky130_fd_sc_hd__fill_1
XFILLER_11_39 VPWR VGND VPWR VGND sky130_ef_sc_hd__decap_12
XFILLER_13_172 VGND VGND VPWR VPWR sky130_fd_sc_hd__decap_8
XFILLER_13_150 VGND VGND VPWR VPWR sky130_fd_sc_hd__decap_4
XFILLER_3_51 VGND VGND VPWR VPWR sky130_fd_sc_hd__decap_4
XFILLER_8_29 VPWR VGND VPWR VGND sky130_ef_sc_hd__decap_12
XFILLER_10_153 VPWR VGND VPWR VGND sky130_ef_sc_hd__decap_12
XFILLER_3_105 VGND VGND VPWR VPWR sky130_fd_sc_hd__decap_6
XFILLER_3_149 VPWR VGND VPWR VGND sky130_ef_sc_hd__decap_12
XFILLER_0_85 VPWR VGND VPWR VGND sky130_ef_sc_hd__decap_12
XFILLER_0_41 VPWR VGND VPWR VGND sky130_ef_sc_hd__decap_12
XFILLER_7_3 VPWR VGND VPWR VGND sky130_ef_sc_hd__decap_12
XFILLER_13_184 VGND VGND VPWR VPWR sky130_fd_sc_hd__decap_3
XFILLER_9_111 VGND VGND VPWR VPWR sky130_fd_sc_hd__fill_1
XFILLER_10_121 VPWR VGND VPWR VGND sky130_ef_sc_hd__decap_12
XFILLER_10_165 VPWR VGND VPWR VGND sky130_ef_sc_hd__decap_12
XFILLER_0_97 VPWR VGND VPWR VGND sky130_ef_sc_hd__decap_12
XFILLER_0_53 VGND VGND VPWR VPWR sky130_fd_sc_hd__decap_3
XFILLER_9_51 VGND VGND VPWR VPWR sky130_fd_sc_hd__decap_4
XFILLER_0_109 VGND VGND VPWR VPWR sky130_fd_sc_hd__decap_3
XFILLER_6_41 VPWR VGND VPWR VGND sky130_ef_sc_hd__decap_12
XFILLER_6_85 VPWR VGND VPWR VGND sky130_ef_sc_hd__decap_12
XFILLER_9_167 VGND VGND VPWR VPWR sky130_fd_sc_hd__fill_1
XFILLER_9_189 VGND VGND VPWR VPWR sky130_fd_sc_hd__fill_1
XPHY_EDGE_ROW_5_Left_19 VGND VGND VPWR VPWR sky130_fd_sc_hd__decap_3
XFILLER_10_133 VGND VGND VPWR VPWR sky130_fd_sc_hd__decap_6
XFILLER_10_177 VPWR VGND VPWR VGND sky130_ef_sc_hd__decap_12
XFILLER_5_181 VGND VGND VPWR VPWR sky130_fd_sc_hd__decap_8
X_69_ _28_ _29_ VGND VGND VPWR VPWR _30_ sky130_fd_sc_hd__nand2_1
XPHY_EDGE_ROW_8_Left_22 VGND VGND VPWR VPWR sky130_fd_sc_hd__decap_3
XFILLER_6_53 VPWR VGND VPWR VGND sky130_ef_sc_hd__decap_12
XFILLER_6_97 VPWR VGND VPWR VGND sky130_ef_sc_hd__decap_12
XFILLER_9_113 VPWR VGND VPWR VGND sky130_ef_sc_hd__decap_12
XFILLER_10_189 VGND VGND VPWR VPWR sky130_fd_sc_hd__fill_1
XFILLER_12_41 VPWR VGND VPWR VGND sky130_ef_sc_hd__decap_12
X_68_ _01_ _02_ _25_ VGND VGND VPWR VPWR _29_ sky130_fd_sc_hd__mux2_1
XFILLER_2_141 VPWR VGND VPWR VGND sky130_ef_sc_hd__decap_12
XPHY_EDGE_ROW_2_Right_2 VGND VGND VPWR VPWR sky130_fd_sc_hd__decap_3
XFILLER_6_65 VPWR VGND VPWR VGND sky130_ef_sc_hd__decap_12
XFILLER_13_154 VGND VGND VPWR VPWR sky130_fd_sc_hd__fill_1
XFILLER_3_55 VGND VGND VPWR VPWR sky130_fd_sc_hd__fill_1
XFILLER_9_125 VPWR VGND VPWR VGND sky130_ef_sc_hd__decap_12
XFILLER_9_169 VPWR VGND VPWR VGND sky130_ef_sc_hd__decap_12
XFILLER_5_3 VPWR VGND VPWR VGND sky130_ef_sc_hd__decap_12
XFILLER_6_139 VGND VGND VPWR VPWR sky130_fd_sc_hd__fill_1
XFILLER_12_53 VGND VGND VPWR VPWR sky130_fd_sc_hd__decap_6
XFILLER_5_161 VGND VGND VPWR VPWR sky130_fd_sc_hd__decap_6
X_67_ net3 net7 _14_ VGND VGND VPWR VPWR _28_ sky130_fd_sc_hd__mux2_1
XFILLER_2_153 VPWR VGND VPWR VGND sky130_ef_sc_hd__decap_12