* NGSPICE file created from Viterbi_Top.ext - technology: sky130A

* Black-box entry subcircuit for sky130_fd_sc_hd__decap_3 abstract view
.subckt sky130_fd_sc_hd__decap_3 VGND VNB VPB VPWR
.ends

* Black-box entry subcircuit for sky130_ef_sc_hd__decap_12 abstract view
.subckt sky130_ef_sc_hd__decap_12 VPWR VGND VPB VNB
.ends

* Black-box entry subcircuit for sky130_fd_sc_hd__decap_6 abstract view
.subckt sky130_fd_sc_hd__decap_6 VGND VNB VPB VPWR
.ends

* Black-box entry subcircuit for sky130_fd_sc_hd__fill_1 abstract view
.subckt sky130_fd_sc_hd__fill_1 VGND VNB VPB VPWR
.ends

* Black-box entry subcircuit for sky130_fd_sc_hd__tapvpwrvgnd_1 abstract view
.subckt sky130_fd_sc_hd__tapvpwrvgnd_1 VGND VPWR
.ends

* Black-box entry subcircuit for sky130_fd_sc_hd__decap_8 abstract view
.subckt sky130_fd_sc_hd__decap_8 VGND VNB VPB VPWR
.ends

* Black-box entry subcircuit for sky130_fd_sc_hd__decap_4 abstract view
.subckt sky130_fd_sc_hd__decap_4 VGND VNB VPB VPWR
.ends

* Black-box entry subcircuit for sky130_fd_sc_hd__diode_2 abstract view
.subckt sky130_fd_sc_hd__diode_2 DIODE VGND VNB VPB VPWR
.ends

* Black-box entry subcircuit for sky130_fd_sc_hd__fill_2 abstract view
.subckt sky130_fd_sc_hd__fill_2 VGND VNB VPB VPWR
.ends

* Black-box entry subcircuit for Maximum_Path_Memory abstract view
.subckt Maximum_Path_Memory VGND VPWR prev_00[0] prev_00[1] prev_00[2] prev_00[3]
+ prev_01[0] prev_01[1] prev_01[2] prev_01[3] prev_10[0] prev_10[1] prev_10[2] prev_10[3]
+ prev_11[0] prev_11[1] prev_11[2] prev_11[3] winner_state[0] winner_state[1]
.ends

* Black-box entry subcircuit for sky130_fd_sc_hd__buf_2 abstract view
.subckt sky130_fd_sc_hd__buf_2 A VGND VNB VPB VPWR X
.ends

* Black-box entry subcircuit for sky130_fd_sc_hd__clkinvlp_4 abstract view
.subckt sky130_fd_sc_hd__clkinvlp_4 A VGND VNB VPB VPWR Y
.ends

* Black-box entry subcircuit for sky130_fd_sc_hd__clkbuf_16 abstract view
.subckt sky130_fd_sc_hd__clkbuf_16 A VGND VNB VPB VPWR X
.ends

* Black-box entry subcircuit for Branch_Metrics abstract view
.subckt Branch_Metrics VGND VPWR bm_00_00[0] bm_00_00[1] bm_00_10[0] bm_00_10[1] bm_01_00[0]
+ bm_01_00[1] bm_01_10[0] bm_01_10[1] bm_10_01[0] bm_10_01[1] bm_10_11[0] bm_10_11[1]
+ bm_11_01[0] bm_11_01[1] bm_11_11[0] bm_11_11[1] received[0] received[1]
.ends

* Black-box entry subcircuit for sky130_fd_sc_hd__buf_1 abstract view
.subckt sky130_fd_sc_hd__buf_1 A VGND VNB VPB VPWR X
.ends

* Black-box entry subcircuit for sky130_fd_sc_hd__dlymetal6s2s_1 abstract view
.subckt sky130_fd_sc_hd__dlymetal6s2s_1 A VGND VNB VPB VPWR X
.ends

* Black-box entry subcircuit for Survivor_Memory_Unit abstract view
.subckt Survivor_Memory_Unit VGND VPWR clk decoded_out[0] decoded_out[1] decoded_out[2]
+ decoded_out[3] decoded_out[4] decoded_out[5] decoded_out[6] decoded_out[7] rst_n
+ survivor_select_00 survivor_select_01 survivor_select_10 survivor_select_11 winner_state[0]
+ winner_state[1]
.ends

* Black-box entry subcircuit for Controller abstract view
.subckt Controller VGND VPWR clk clr_me frame_done rst_n start
.ends

* Black-box entry subcircuit for Path_Metric_Unit abstract view
.subckt Path_Metric_Unit VGND VPWR bm_00_00[0] bm_00_00[1] bm_00_10[0] bm_00_10[1]
+ bm_01_00[0] bm_01_00[1] bm_01_10[0] bm_01_10[1] bm_10_01[0] bm_10_01[1] bm_10_11[0]
+ bm_10_11[1] bm_11_01[0] bm_11_01[1] bm_11_11[0] bm_11_11[1] clk clr_me current_metric_00[0]
+ current_metric_00[1] current_metric_00[2] current_metric_00[3] current_metric_01[0]
+ current_metric_01[1] current_metric_01[2] current_metric_01[3] current_metric_10[0]
+ current_metric_10[1] current_metric_10[2] current_metric_10[3] current_metric_11[0]
+ current_metric_11[1] current_metric_11[2] current_metric_11[3] rst_n servivor_select_00
+ servivor_select_01 servivor_select_10 servivor_select_11
.ends

.subckt Viterbi_Top VGND VPWR clk decoded_out[0] decoded_out[1] decoded_out[2] decoded_out[3]
+ decoded_out[4] decoded_out[5] decoded_out[6] decoded_out[7] frame_done received[0]
+ received[1] rst_n start
XPHY_EDGE_ROW_147_Right_47 VGND VGND VPWR VPWR sky130_fd_sc_hd__decap_3
XFILLER_95_862 VPWR VGND VPWR VGND sky130_ef_sc_hd__decap_12
XFILLER_82_578 VPWR VGND VPWR VGND sky130_ef_sc_hd__decap_12
XPHY_EDGE_ROW_105_2_Right_535 VGND VGND VPWR VPWR sky130_fd_sc_hd__decap_3
XFILLER_22_133 VGND VGND VPWR VPWR sky130_fd_sc_hd__decap_6
XFILLER_23_656 VPWR VGND VPWR VGND sky130_ef_sc_hd__decap_12
XFILLER_52_29 VPWR VGND VPWR VGND sky130_ef_sc_hd__decap_12
XFILLER_50_475 VGND VGND VPWR VPWR sky130_fd_sc_hd__fill_1
XFILLER_149_853 VPWR VGND VPWR VGND sky130_ef_sc_hd__decap_12
XFILLER_22_177 VPWR VGND VPWR VGND sky130_ef_sc_hd__decap_12
XTAP_TAPCELL_ROW_44_1092 VGND VPWR sky130_fd_sc_hd__tapvpwrvgnd_1
XFILLER_148_363 VGND VGND VPWR VPWR sky130_fd_sc_hd__fill_1
XPHY_EDGE_ROW_79_3_Right_599 VGND VGND VPWR VPWR sky130_fd_sc_hd__decap_3
XPHY_EDGE_ROW_32_1_Right_347 VGND VGND VPWR VPWR sky130_fd_sc_hd__decap_3
XFILLER_132_764 VGND VGND VPWR VPWR sky130_fd_sc_hd__decap_6
XFILLER_116_293 VPWR VGND VPWR VGND sky130_ef_sc_hd__decap_12
XFILLER_117_55 VGND VGND VPWR VPWR sky130_fd_sc_hd__fill_1
XFILLER_77_15 VPWR VGND VPWR VGND sky130_ef_sc_hd__decap_12
XTAP_TAPCELL_ROW_6_800 VGND VPWR sky130_fd_sc_hd__tapvpwrvgnd_1
XFILLER_77_306 VGND VGND VPWR VPWR sky130_fd_sc_hd__fill_1
XTAP_TAPCELL_ROW_117_2_2248 VGND VPWR sky130_fd_sc_hd__tapvpwrvgnd_1
XFILLER_58_531 VGND VGND VPWR VPWR sky130_fd_sc_hd__fill_1
XFILLER_93_47 VGND VGND VPWR VPWR sky130_fd_sc_hd__decap_3
XFILLER_46_737 VPWR VGND VPWR VGND sky130_ef_sc_hd__decap_12
XFILLER_45_225 VPWR VGND VPWR VGND sky130_ef_sc_hd__decap_12
XPHY_EDGE_ROW_116_Left_266 VGND VGND VPWR VPWR sky130_fd_sc_hd__decap_3
XFILLER_73_578 VPWR VGND VPWR VGND sky130_ef_sc_hd__decap_12
XFILLER_26_41 VPWR VGND VPWR VGND sky130_ef_sc_hd__decap_12
XTAP_TAPCELL_ROW_142_1765 VGND VPWR sky130_fd_sc_hd__tapvpwrvgnd_1
XTAP_TAPCELL_ROW_142_1754 VGND VPWR sky130_fd_sc_hd__tapvpwrvgnd_1
XTAP_TAPCELL_ROW_142_1743 VGND VPWR sky130_fd_sc_hd__tapvpwrvgnd_1
XFILLER_61_729 VPWR VGND VPWR VGND sky130_ef_sc_hd__decap_12
XFILLER_54_781 VPWR VGND VPWR VGND sky130_ef_sc_hd__decap_12
XTAP_TAPCELL_ROW_64_1413 VGND VPWR sky130_fd_sc_hd__tapvpwrvgnd_1
XTAP_TAPCELL_ROW_64_1424 VGND VPWR sky130_fd_sc_hd__tapvpwrvgnd_1
XTAP_TAPCELL_ROW_64_1435 VGND VPWR sky130_fd_sc_hd__tapvpwrvgnd_1
XFILLER_26_85 VPWR VGND VPWR VGND sky130_ef_sc_hd__decap_12
XFILLER_9_137 VPWR VGND VPWR VGND sky130_ef_sc_hd__decap_12
XFILLER_6_811 VGND VGND VPWR VPWR sky130_fd_sc_hd__fill_1
XPHY_EDGE_ROW_14_2_Right_50 VGND VGND VPWR VPWR sky130_fd_sc_hd__decap_3
XFILLER_142_517 VPWR VGND VPWR VGND sky130_ef_sc_hd__decap_12
XFILLER_115_709 VPWR VGND VPWR VGND sky130_ef_sc_hd__decap_12
XFILLER_123_742 VGND VGND VPWR VPWR sky130_fd_sc_hd__fill_1
XFILLER_96_604 VGND VGND VPWR VPWR sky130_fd_sc_hd__decap_8
XFILLER_77_862 VPWR VGND VPWR VGND sky130_ef_sc_hd__decap_12
XTAP_TAPCELL_ROW_41_1_1071 VGND VPWR sky130_fd_sc_hd__tapvpwrvgnd_1
XFILLER_49_553 VGND VGND VPWR VPWR sky130_fd_sc_hd__decap_6
XFILLER_49_597 VPWR VGND VPWR VGND sky130_ef_sc_hd__decap_12
XFILLER_92_876 VGND VGND VPWR VPWR sky130_fd_sc_hd__fill_1
XFILLER_64_545 VPWR VGND VPWR VGND sky130_ef_sc_hd__decap_12
XFILLER_64_589 VPWR VGND VPWR VGND sky130_ef_sc_hd__decap_12
XFILLER_51_217 VGND VGND VPWR VPWR sky130_fd_sc_hd__decap_6
XFILLER_20_604 VPWR VGND VPWR VGND sky130_ef_sc_hd__decap_12
XFILLER_9_671 VGND VGND VPWR VPWR sky130_fd_sc_hd__fill_1
XFILLER_146_867 VGND VGND VPWR VPWR sky130_fd_sc_hd__fill_1
XPHY_EDGE_ROW_76_4_Right_91 VGND VGND VPWR VPWR sky130_fd_sc_hd__decap_3
XTAP_TAPCELL_ROW_89_2_2164 VGND VPWR sky130_fd_sc_hd__tapvpwrvgnd_1
XFILLER_59_317 VPWR VGND VPWR VGND sky130_ef_sc_hd__decap_12
XFILLER_83_832 VPWR VGND VPWR VGND sky130_ef_sc_hd__decap_12
XFILLER_27_225 VPWR VGND VPWR VGND sky130_ef_sc_hd__decap_12
XTAP_TAPCELL_ROW_69_2_2084 VGND VPWR sky130_fd_sc_hd__tapvpwrvgnd_1
XPHY_EDGE_ROW_106_2_Right_536 VGND VGND VPWR VPWR sky130_fd_sc_hd__decap_3
XFILLER_36_770 VGND VGND VPWR VPWR sky130_fd_sc_hd__fill_1
XFILLER_63_39 VPWR VGND VPWR VGND sky130_ef_sc_hd__decap_12
XPHY_EDGE_ROW_103_2_Left_398 VGND VGND VPWR VPWR sky130_fd_sc_hd__decap_3
XTAP_TAPCELL_ROW_46_1143 VGND VPWR sky130_fd_sc_hd__tapvpwrvgnd_1
XFILLER_11_615 VGND VGND VPWR VPWR sky130_fd_sc_hd__fill_1
XFILLER_137_812 VPWR VGND VPWR VGND sky130_ef_sc_hd__decap_12
XFILLER_137_856 VPWR VGND VPWR VGND sky130_ef_sc_hd__decap_12
XFILLER_12_65 VPWR VGND VPWR VGND sky130_ef_sc_hd__decap_12
XFILLER_128_65 VPWR VGND VPWR VGND sky130_ef_sc_hd__decap_12
XFILLER_2_357 VGND VGND VPWR VPWR sky130_fd_sc_hd__decap_6
XPHY_EDGE_ROW_33_1_Right_348 VGND VGND VPWR VPWR sky130_fd_sc_hd__decap_3
XFILLER_78_604 VGND VGND VPWR VPWR sky130_fd_sc_hd__decap_8
XFILLER_144_53 VPWR VGND VPWR VGND sky130_ef_sc_hd__decap_12
XFILLER_144_97 VPWR VGND VPWR VGND sky130_ef_sc_hd__decap_12
XFILLER_46_501 VPWR VGND VPWR VGND sky130_ef_sc_hd__decap_12
XFILLER_37_51 VGND VGND VPWR VPWR sky130_fd_sc_hd__decap_4
XFILLER_74_876 VGND VGND VPWR VPWR sky130_fd_sc_hd__fill_1
XFILLER_46_545 VPWR VGND VPWR VGND sky130_ef_sc_hd__decap_12
XFILLER_33_217 VGND VGND VPWR VPWR sky130_fd_sc_hd__decap_6
XTAP_TAPCELL_ROW_33_2_2007 VGND VPWR sky130_fd_sc_hd__tapvpwrvgnd_1
XFILLER_46_589 VPWR VGND VPWR VGND sky130_ef_sc_hd__decap_12
XFILLER_42_740 VPWR VGND VPWR VGND sky130_ef_sc_hd__decap_12
XFILLER_27_792 VGND VGND VPWR VPWR sky130_fd_sc_hd__decap_6
XFILLER_61_559 VGND VGND VPWR VPWR sky130_fd_sc_hd__fill_1
XFILLER_147_609 VGND VGND VPWR VPWR sky130_fd_sc_hd__decap_6
XFILLER_42_784 VPWR VGND VPWR VGND sky130_ef_sc_hd__decap_12
XFILLER_41_261 VPWR VGND VPWR VGND sky130_ef_sc_hd__decap_12
XFILLER_139_193 VPWR VGND VPWR VGND sky130_ef_sc_hd__decap_12
XPHY_EDGE_ROW_97_2_Left_392 VGND VGND VPWR VPWR sky130_fd_sc_hd__decap_3
XFILLER_10_681 VPWR VGND VPWR VGND sky130_ef_sc_hd__decap_12
XFILLER_115_517 VPWR VGND VPWR VGND sky130_ef_sc_hd__decap_12
XFILLER_56_309 VPWR VGND VPWR VGND sky130_ef_sc_hd__decap_12
XFILLER_110_277 VGND VGND VPWR VPWR sky130_fd_sc_hd__decap_3
XFILLER_65_832 VPWR VGND VPWR VGND sky130_ef_sc_hd__decap_12
XFILLER_49_361 VPWR VGND VPWR VGND sky130_ef_sc_hd__decap_12
XFILLER_37_578 VPWR VGND VPWR VGND sky130_ef_sc_hd__decap_12
XFILLER_18_770 VGND VGND VPWR VPWR sky130_fd_sc_hd__fill_1
XFILLER_80_846 VPWR VGND VPWR VGND sky130_ef_sc_hd__decap_12
XFILLER_64_397 VGND VGND VPWR VPWR sky130_fd_sc_hd__fill_1
XFILLER_60_581 VGND VGND VPWR VPWR sky130_fd_sc_hd__decap_6
XFILLER_119_812 VPWR VGND VPWR VGND sky130_ef_sc_hd__decap_12
XFILLER_119_856 VPWR VGND VPWR VGND sky130_ef_sc_hd__decap_12
XFILLER_134_826 VGND VGND VPWR VPWR sky130_fd_sc_hd__fill_1
XFILLER_142_881 VGND VGND VPWR VPWR sky130_fd_sc_hd__decap_4
XFILLER_99_250 VGND VGND VPWR VPWR sky130_fd_sc_hd__fill_1
XFILLER_101_222 VPWR VGND VPWR VGND sky130_ef_sc_hd__decap_12
XFILLER_59_125 VPWR VGND VPWR VGND sky130_ef_sc_hd__decap_12
XFILLER_59_169 VPWR VGND VPWR VGND sky130_ef_sc_hd__decap_12
XFILLER_101_288 VPWR VGND VPWR VGND sky130_ef_sc_hd__decap_12
XFILLER_74_27 VGND VGND VPWR VPWR sky130_fd_sc_hd__fill_1
XFILLER_74_49 VGND VGND VPWR VPWR sky130_fd_sc_hd__fill_1
XFILLER_15_217 VGND VGND VPWR VPWR sky130_fd_sc_hd__decap_6
XFILLER_28_578 VPWR VGND VPWR VGND sky130_ef_sc_hd__decap_12
XFILLER_24_740 VPWR VGND VPWR VGND sky130_ef_sc_hd__decap_12
XFILLER_130_77 VGND VGND VPWR VPWR sky130_fd_sc_hd__decap_6
XPHY_EDGE_ROW_107_2_Right_537 VGND VGND VPWR VPWR sky130_fd_sc_hd__decap_3
XFILLER_90_15 VPWR VGND VPWR VGND sky130_ef_sc_hd__decap_12
XFILLER_30_209 VPWR VGND VPWR VGND sky130_ef_sc_hd__decap_12
XFILLER_23_261 VPWR VGND VPWR VGND sky130_ef_sc_hd__decap_12
XFILLER_24_784 VPWR VGND VPWR VGND sky130_ef_sc_hd__decap_12
XANTENNA_PMU_Top_current_metric_00[3] pm_00\[3\] VGND VGND VPWR VPWR sky130_fd_sc_hd__diode_2
XFILLER_135_3 VPWR VGND VPWR VGND sky130_ef_sc_hd__decap_12
XFILLER_7_405 VPWR VGND VPWR VGND sky130_ef_sc_hd__decap_12
XFILLER_109_300 VGND VGND VPWR VPWR sky130_fd_sc_hd__decap_6
XFILLER_7_449 VPWR VGND VPWR VGND sky130_ef_sc_hd__decap_12
XFILLER_136_141 VPWR VGND VPWR VGND sky130_ef_sc_hd__decap_12
XFILLER_125_848 VGND VGND VPWR VPWR sky130_fd_sc_hd__decap_6
XFILLER_137_686 VGND VGND VPWR VPWR sky130_fd_sc_hd__fill_1
XTAP_TAPCELL_ROW_59_1345 VGND VPWR sky130_fd_sc_hd__tapvpwrvgnd_1
XFILLER_2_121 VPWR VGND VPWR VGND sky130_ef_sc_hd__decap_12
XFILLER_2_165 VPWR VGND VPWR VGND sky130_ef_sc_hd__decap_12
XPHY_EDGE_ROW_34_1_Right_349 VGND VGND VPWR VPWR sky130_fd_sc_hd__decap_3
XFILLER_47_821 VPWR VGND VPWR VGND sky130_ef_sc_hd__decap_12
XFILLER_48_83 VGND VGND VPWR VPWR sky130_fd_sc_hd__fill_1
XFILLER_47_865 VPWR VGND VPWR VGND sky130_ef_sc_hd__decap_12
XFILLER_62_813 VPWR VGND VPWR VGND sky130_ef_sc_hd__decap_12
XFILLER_0_57 VPWR VGND VPWR VGND sky130_ef_sc_hd__decap_12
XFILLER_19_578 VPWR VGND VPWR VGND sky130_ef_sc_hd__decap_12
XFILLER_147_417 VPWR VGND VPWR VGND sky130_ef_sc_hd__decap_12
XFILLER_9_55 VGND VGND VPWR VPWR sky130_fd_sc_hd__fill_1
XTAP_TAPCELL_ROW_138_2_2366 VGND VPWR sky130_fd_sc_hd__tapvpwrvgnd_1
XFILLER_116_837 VGND VGND VPWR VPWR sky130_fd_sc_hd__decap_3
XTAP_TAPCELL_ROW_28_1_1003 VGND VPWR sky130_fd_sc_hd__tapvpwrvgnd_1
XFILLER_50_3 VPWR VGND VPWR VGND sky130_ef_sc_hd__decap_12
XTAP_TAPCELL_ROW_118_2_2253 VGND VPWR sky130_fd_sc_hd__tapvpwrvgnd_1
XFILLER_57_629 VPWR VGND VPWR VGND sky130_ef_sc_hd__decap_12
XFILLER_56_139 VGND VGND VPWR VPWR sky130_fd_sc_hd__fill_1
XFILLER_38_876 VGND VGND VPWR VPWR sky130_fd_sc_hd__decap_6
XFILLER_52_301 VGND VGND VPWR VPWR sky130_fd_sc_hd__decap_6
XFILLER_12_209 VPWR VGND VPWR VGND sky130_ef_sc_hd__decap_12
XFILLER_52_345 VPWR VGND VPWR VGND sky130_ef_sc_hd__decap_12
XFILLER_52_389 VPWR VGND VPWR VGND sky130_ef_sc_hd__decap_12
XFILLER_20_253 VPWR VGND VPWR VGND sky130_ef_sc_hd__decap_12
XFILLER_21_798 VGND VGND VPWR VPWR sky130_fd_sc_hd__fill_1
XFILLER_60_29 VPWR VGND VPWR VGND sky130_ef_sc_hd__decap_12
XFILLER_118_141 VPWR VGND VPWR VGND sky130_ef_sc_hd__decap_12
XFILLER_119_686 VGND VGND VPWR VPWR sky130_fd_sc_hd__fill_1
XFILLER_114_8 VPWR VGND VPWR VGND sky130_ef_sc_hd__decap_12
XFILLER_107_848 VGND VGND VPWR VPWR sky130_fd_sc_hd__fill_1
XFILLER_4_419 VGND VGND VPWR VPWR sky130_fd_sc_hd__fill_1
XFILLER_133_111 VGND VGND VPWR VPWR sky130_fd_sc_hd__fill_1
XFILLER_69_27 VPWR VGND VPWR VGND sky130_ef_sc_hd__decap_12
XFILLER_130_840 VPWR VGND VPWR VGND sky130_ef_sc_hd__decap_12
XFILLER_125_55 VGND VGND VPWR VPWR sky130_fd_sc_hd__fill_1
XFILLER_85_15 VPWR VGND VPWR VGND sky130_ef_sc_hd__decap_12
XFILLER_0_669 VGND VGND VPWR VPWR sky130_fd_sc_hd__decap_3
XTAP_TAPCELL_ROW_54_1264 VGND VPWR sky130_fd_sc_hd__tapvpwrvgnd_1
XFILLER_130_884 VGND VGND VPWR VPWR sky130_fd_sc_hd__fill_2
XFILLER_87_264 VPWR VGND VPWR VGND sky130_ef_sc_hd__decap_12
XFILLER_18_53 VPWR VGND VPWR VGND sky130_ef_sc_hd__decap_12
XFILLER_29_854 VGND VGND VPWR VPWR sky130_fd_sc_hd__fill_1
XFILLER_44_813 VPWR VGND VPWR VGND sky130_ef_sc_hd__decap_12
XFILLER_55_161 VGND VGND VPWR VPWR sky130_fd_sc_hd__decap_6
XFILLER_62_109 VPWR VGND VPWR VGND sky130_ef_sc_hd__decap_12
XTAP_TAPCELL_ROW_81_4_2133 VGND VPWR sky130_fd_sc_hd__tapvpwrvgnd_1
XFILLER_18_97 VPWR VGND VPWR VGND sky130_ef_sc_hd__decap_12
XPHY_EDGE_ROW_108_2_Right_538 VGND VGND VPWR VPWR sky130_fd_sc_hd__decap_3
XTAP_TAPCELL_ROW_34_1_1035 VGND VPWR sky130_fd_sc_hd__tapvpwrvgnd_1
XFILLER_34_41 VPWR VGND VPWR VGND sky130_ef_sc_hd__decap_12
XFILLER_34_85 VPWR VGND VPWR VGND sky130_ef_sc_hd__decap_12
XFILLER_8_725 VPWR VGND VPWR VGND sky130_ef_sc_hd__decap_12
XFILLER_8_769 VPWR VGND VPWR VGND sky130_ef_sc_hd__decap_12
XTAP_TAPCELL_ROW_124_2_2285 VGND VPWR sky130_fd_sc_hd__tapvpwrvgnd_1
XFILLER_7_279 VGND VGND VPWR VPWR sky130_fd_sc_hd__fill_1
XMPM VGND VPWR pm_00\[0\] pm_00\[1\] pm_00\[2\] pm_00\[3\] pm_01\[0\] pm_01\[1\] pm_01\[2\]
+ pm_01\[3\] pm_10\[0\] pm_10\[1\] pm_10\[2\] pm_10\[3\] pm_11\[0\] pm_11\[1\] pm_11\[2\]
+ pm_11\[3\] winner_state\[0\] winner_state\[1\] Maximum_Path_Memory
XFILLER_125_656 VPWR VGND VPWR VGND sky130_ef_sc_hd__decap_12
XFILLER_124_133 VGND VGND VPWR VPWR sky130_fd_sc_hd__decap_6
XFILLER_140_604 VPWR VGND VPWR VGND sky130_ef_sc_hd__decap_12
XFILLER_106_870 VGND VGND VPWR VPWR sky130_fd_sc_hd__decap_6
XFILLER_3_441 VGND VGND VPWR VPWR sky130_fd_sc_hd__decap_6
XFILLER_124_177 VPWR VGND VPWR VGND sky130_ef_sc_hd__decap_12
XFILLER_3_485 VPWR VGND VPWR VGND sky130_ef_sc_hd__decap_12
XFILLER_59_93 VPWR VGND VPWR VGND sky130_ef_sc_hd__decap_12
XFILLER_93_234 VPWR VGND VPWR VGND sky130_ef_sc_hd__decap_12
XFILLER_38_139 VGND VGND VPWR VPWR sky130_fd_sc_hd__fill_1
XFILLER_35_824 VPWR VGND VPWR VGND sky130_ef_sc_hd__decap_12
XFILLER_47_673 VPWR VGND VPWR VGND sky130_ef_sc_hd__decap_12
XFILLER_34_301 VGND VGND VPWR VPWR sky130_fd_sc_hd__decap_6
XFILLER_62_643 VGND VGND VPWR VPWR sky130_fd_sc_hd__fill_1
XTAP_TAPCELL_ROW_131_1_1685 VGND VPWR sky130_fd_sc_hd__tapvpwrvgnd_1
XFILLER_50_805 VGND VGND VPWR VPWR sky130_fd_sc_hd__decap_6
XFILLER_35_868 VPWR VGND VPWR VGND sky130_ef_sc_hd__decap_12
XFILLER_98_3 VPWR VGND VPWR VGND sky130_ef_sc_hd__decap_12
XFILLER_50_849 VPWR VGND VPWR VGND sky130_ef_sc_hd__decap_12
XFILLER_148_737 VPWR VGND VPWR VGND sky130_ef_sc_hd__decap_12
XFILLER_147_225 VPWR VGND VPWR VGND sky130_ef_sc_hd__decap_12
XFILLER_116_601 VPWR VGND VPWR VGND sky130_ef_sc_hd__decap_12
XFILLER_116_645 VPWR VGND VPWR VGND sky130_ef_sc_hd__decap_12
XFILLER_115_111 VGND VGND VPWR VPWR sky130_fd_sc_hd__fill_1
XTAP_TAPCELL_ROW_116_1589 VGND VPWR sky130_fd_sc_hd__tapvpwrvgnd_1
XTAP_TAPCELL_ROW_116_1578 VGND VPWR sky130_fd_sc_hd__tapvpwrvgnd_1
XFILLER_104_818 VGND VGND VPWR VPWR sky130_fd_sc_hd__decap_3
XFILLER_103_306 VGND VGND VPWR VPWR sky130_fd_sc_hd__fill_1
XFILLER_143_497 VGND VGND VPWR VPWR sky130_fd_sc_hd__decap_6
XFILLER_131_626 VGND VGND VPWR VPWR sky130_fd_sc_hd__decap_4
XFILLER_111_361 VPWR VGND VPWR VGND sky130_ef_sc_hd__decap_12
XFILLER_69_264 VPWR VGND VPWR VGND sky130_ef_sc_hd__decap_12
XTAP_TAPCELL_ROW_40_1_1067 VGND VPWR sky130_fd_sc_hd__tapvpwrvgnd_1
XFILLER_38_640 VPWR VGND VPWR VGND sky130_ef_sc_hd__decap_12
XFILLER_84_278 VGND VGND VPWR VPWR sky130_fd_sc_hd__fill_1
XFILLER_44_109 VGND VGND VPWR VPWR sky130_fd_sc_hd__decap_3
XFILLER_37_161 VGND VGND VPWR VPWR sky130_fd_sc_hd__decap_6
XTAP_TAPCELL_ROW_34_2_2012 VGND VPWR sky130_fd_sc_hd__tapvpwrvgnd_1
XFILLER_38_684 VPWR VGND VPWR VGND sky130_ef_sc_hd__decap_12
XFILLER_52_153 VPWR VGND VPWR VGND sky130_ef_sc_hd__decap_12
XFILLER_53_665 VGND VGND VPWR VPWR sky130_fd_sc_hd__decap_6
XFILLER_111_57 VPWR VGND VPWR VGND sky130_ef_sc_hd__decap_12
XFILLER_13_529 VGND VGND VPWR VPWR sky130_fd_sc_hd__decap_3
XTAP_TAPCELL_ROW_21_1_964 VGND VPWR sky130_fd_sc_hd__tapvpwrvgnd_1
XFILLER_52_197 VPWR VGND VPWR VGND sky130_ef_sc_hd__decap_12
XFILLER_71_39 VGND VGND VPWR VPWR sky130_fd_sc_hd__decap_8
XTAP_TAPCELL_ROW_96_2_2190 VGND VPWR sky130_fd_sc_hd__tapvpwrvgnd_1
XFILLER_122_604 VPWR VGND VPWR VGND sky130_ef_sc_hd__decap_12
XFILLER_20_65 VPWR VGND VPWR VGND sky130_ef_sc_hd__decap_12
XFILLER_136_65 VPWR VGND VPWR VGND sky130_ef_sc_hd__decap_12
XFILLER_121_125 VPWR VGND VPWR VGND sky130_ef_sc_hd__decap_12
XFILLER_103_862 VPWR VGND VPWR VGND sky130_ef_sc_hd__decap_12
XFILLER_0_433 VPWR VGND VPWR VGND sky130_ef_sc_hd__decap_12
XFILLER_121_169 VPWR VGND VPWR VGND sky130_ef_sc_hd__decap_12
XFILLER_0_477 VPWR VGND VPWR VGND sky130_ef_sc_hd__decap_12
XTAP_TAPCELL_ROW_4_761 VGND VPWR sky130_fd_sc_hd__tapvpwrvgnd_1
XFILLER_75_234 VPWR VGND VPWR VGND sky130_ef_sc_hd__decap_12
XTAP_TAPCELL_ROW_4_772 VGND VPWR sky130_fd_sc_hd__tapvpwrvgnd_1
XFILLER_16_301 VGND VGND VPWR VPWR sky130_fd_sc_hd__decap_6
XFILLER_17_824 VPWR VGND VPWR VGND sky130_ef_sc_hd__decap_12
XFILLER_63_429 VPWR VGND VPWR VGND sky130_ef_sc_hd__decap_12
XFILLER_90_248 VPWR VGND VPWR VGND sky130_ef_sc_hd__decap_12
XFILLER_17_868 VPWR VGND VPWR VGND sky130_ef_sc_hd__decap_12
XFILLER_45_51 VGND VGND VPWR VPWR sky130_fd_sc_hd__decap_4
XFILLER_129_225 VPWR VGND VPWR VGND sky130_ef_sc_hd__decap_12
XPHY_EDGE_ROW_109_2_Right_539 VGND VGND VPWR VPWR sky130_fd_sc_hd__decap_3
XFILLER_40_882 VGND VGND VPWR VPWR sky130_fd_sc_hd__fill_1
XFILLER_8_533 VPWR VGND VPWR VGND sky130_ef_sc_hd__decap_12
XFILLER_145_729 VPWR VGND VPWR VGND sky130_ef_sc_hd__decap_12
XFILLER_138_770 VGND VGND VPWR VPWR sky130_fd_sc_hd__fill_1
XFILLER_113_615 VGND VGND VPWR VPWR sky130_fd_sc_hd__fill_1
XFILLER_98_304 VGND VGND VPWR VPWR sky130_fd_sc_hd__decap_6
XFILLER_3_293 VPWR VGND VPWR VGND sky130_ef_sc_hd__decap_12
XFILLER_13_3 VPWR VGND VPWR VGND sky130_ef_sc_hd__decap_12
XFILLER_26_109 VPWR VGND VPWR VGND sky130_ef_sc_hd__decap_12
XFILLER_66_278 VGND VGND VPWR VPWR sky130_fd_sc_hd__fill_1
XFILLER_19_161 VGND VGND VPWR VPWR sky130_fd_sc_hd__decap_6
XFILLER_35_632 VPWR VGND VPWR VGND sky130_ef_sc_hd__decap_12
XFILLER_34_153 VPWR VGND VPWR VGND sky130_ef_sc_hd__decap_12
XTAP_TAPCELL_ROW_17_2_1919 VGND VPWR sky130_fd_sc_hd__tapvpwrvgnd_1
XFILLER_50_613 VPWR VGND VPWR VGND sky130_ef_sc_hd__decap_12
XFILLER_34_197 VPWR VGND VPWR VGND sky130_ef_sc_hd__decap_12
XFILLER_50_657 VPWR VGND VPWR VGND sky130_ef_sc_hd__decap_12
XFILLER_148_501 VPWR VGND VPWR VGND sky130_ef_sc_hd__decap_12
XFILLER_148_545 VPWR VGND VPWR VGND sky130_ef_sc_hd__decap_12
XFILLER_148_589 VPWR VGND VPWR VGND sky130_ef_sc_hd__decap_12
XFILLER_135_217 VGND VGND VPWR VPWR sky130_fd_sc_hd__decap_6
XFILLER_129_792 VGND VGND VPWR VPWR sky130_fd_sc_hd__decap_6
XFILLER_104_604 VGND VGND VPWR VPWR sky130_fd_sc_hd__decap_8
XFILLER_143_261 VPWR VGND VPWR VGND sky130_ef_sc_hd__decap_12
XTAP_TAPCELL_ROW_24_1_979 VGND VPWR sky130_fd_sc_hd__tapvpwrvgnd_1
XFILLER_112_681 VPWR VGND VPWR VGND sky130_ef_sc_hd__decap_12
XTAP_TAPCELL_ROW_51_1223 VGND VPWR sky130_fd_sc_hd__tapvpwrvgnd_1
XTAP_TAPCELL_ROW_51_1212 VGND VPWR sky130_fd_sc_hd__tapvpwrvgnd_1
XFILLER_58_713 VPWR VGND VPWR VGND sky130_ef_sc_hd__decap_12
XPHY_EDGE_ROW_89_1_Left_238 VGND VGND VPWR VPWR sky130_fd_sc_hd__decap_3
XFILLER_58_757 VPWR VGND VPWR VGND sky130_ef_sc_hd__decap_12
XFILLER_57_223 VGND VGND VPWR VPWR sky130_fd_sc_hd__fill_1
XFILLER_100_876 VGND VGND VPWR VPWR sky130_fd_sc_hd__fill_1
XTAP_TAPCELL_ROW_1_720 VGND VPWR sky130_fd_sc_hd__tapvpwrvgnd_1
XFILLER_45_429 VPWR VGND VPWR VGND sky130_ef_sc_hd__decap_12
XFILLER_82_27 VGND VGND VPWR VPWR sky130_fd_sc_hd__fill_1
XFILLER_72_248 VPWR VGND VPWR VGND sky130_ef_sc_hd__decap_12
XFILLER_82_49 VGND VGND VPWR VPWR sky130_fd_sc_hd__fill_1
XTAP_TAPCELL_ROW_49_1185 VGND VPWR sky130_fd_sc_hd__tapvpwrvgnd_1
XFILLER_53_473 VPWR VGND VPWR VGND sky130_ef_sc_hd__decap_12
XFILLER_41_602 VPWR VGND VPWR VGND sky130_ef_sc_hd__decap_12
XFILLER_80_292 VPWR VGND VPWR VGND sky130_ef_sc_hd__decap_12
XFILLER_13_337 VPWR VGND VPWR VGND sky130_ef_sc_hd__decap_12
XFILLER_41_668 VPWR VGND VPWR VGND sky130_ef_sc_hd__decap_12
XTAP_TAPCELL_ROW_62_1396 VGND VPWR sky130_fd_sc_hd__tapvpwrvgnd_1
XFILLER_22_882 VGND VGND VPWR VPWR sky130_fd_sc_hd__fill_1
XFILLER_40_189 VGND VGND VPWR VPWR sky130_fd_sc_hd__decap_6
XTAP_TAPCELL_ROW_62_1385 VGND VPWR sky130_fd_sc_hd__tapvpwrvgnd_1
XFILLER_139_578 VPWR VGND VPWR VGND sky130_ef_sc_hd__decap_12
XFILLER_5_503 VGND VGND VPWR VPWR sky130_fd_sc_hd__fill_1
XTAP_TAPCELL_ROW_139_2_2371 VGND VPWR sky130_fd_sc_hd__tapvpwrvgnd_1
Xoutput7 net7 VGND VGND VPWR VPWR decoded_out[2] sky130_fd_sc_hd__buf_2
XTAP_TAPCELL_ROW_9_842 VGND VPWR sky130_fd_sc_hd__tapvpwrvgnd_1
XFILLER_96_808 VPWR VGND VPWR VGND sky130_ef_sc_hd__decap_12
XFILLER_1_753 VPWR VGND VPWR VGND sky130_ef_sc_hd__decap_12
XFILLER_110_629 VPWR VGND VPWR VGND sky130_ef_sc_hd__decap_12
XTAP_TAPCELL_ROW_147_1836 VGND VPWR sky130_fd_sc_hd__tapvpwrvgnd_1
XFILLER_1_797 VPWR VGND VPWR VGND sky130_ef_sc_hd__decap_12
XTAP_TAPCELL_ROW_147_1847 VGND VPWR sky130_fd_sc_hd__tapvpwrvgnd_1
XFILLER_48_245 VGND VGND VPWR VPWR sky130_fd_sc_hd__decap_6
XFILLER_17_632 VPWR VGND VPWR VGND sky130_ef_sc_hd__decap_12
XFILLER_56_83 VGND VGND VPWR VPWR sky130_fd_sc_hd__fill_1
XFILLER_63_237 VPWR VGND VPWR VGND sky130_ef_sc_hd__decap_12
XFILLER_48_289 VPWR VGND VPWR VGND sky130_ef_sc_hd__decap_12
XFILLER_16_153 VPWR VGND VPWR VGND sky130_ef_sc_hd__decap_12
XFILLER_32_602 VGND VGND VPWR VPWR sky130_fd_sc_hd__fill_1
XFILLER_44_473 VGND VGND VPWR VPWR sky130_fd_sc_hd__decap_3
XFILLER_149_309 VPWR VGND VPWR VGND sky130_ef_sc_hd__decap_12
XFILLER_16_197 VPWR VGND VPWR VGND sky130_ef_sc_hd__decap_12
XFILLER_31_167 VGND VGND VPWR VPWR sky130_fd_sc_hd__fill_1
XFILLER_20_808 VPWR VGND VPWR VGND sky130_ef_sc_hd__decap_12
XFILLER_9_853 VPWR VGND VPWR VGND sky130_ef_sc_hd__decap_12
XFILLER_117_217 VGND VGND VPWR VPWR sky130_fd_sc_hd__decap_6
XFILLER_8_363 VGND VGND VPWR VPWR sky130_fd_sc_hd__fill_1
XFILLER_145_559 VGND VGND VPWR VPWR sky130_fd_sc_hd__fill_1
XFILLER_126_740 VPWR VGND VPWR VGND sky130_ef_sc_hd__decap_12
XTAP_TAPCELL_ROW_138_1_1719 VGND VPWR sky130_fd_sc_hd__tapvpwrvgnd_1
XFILLER_132_209 VPWR VGND VPWR VGND sky130_ef_sc_hd__decap_12
XFILLER_99_602 VPWR VGND VPWR VGND sky130_ef_sc_hd__decap_12
XFILLER_126_784 VPWR VGND VPWR VGND sky130_ef_sc_hd__decap_12
XFILLER_125_261 VPWR VGND VPWR VGND sky130_ef_sc_hd__decap_12
XTAP_TAPCELL_ROW_113_1537 VGND VPWR sky130_fd_sc_hd__tapvpwrvgnd_1
XFILLER_87_808 VPWR VGND VPWR VGND sky130_ef_sc_hd__decap_12
XFILLER_141_798 VGND VGND VPWR VPWR sky130_fd_sc_hd__fill_1
XFILLER_140_253 VPWR VGND VPWR VGND sky130_ef_sc_hd__decap_12
XFILLER_39_223 VGND VGND VPWR VPWR sky130_fd_sc_hd__fill_1
XFILLER_95_874 VPWR VGND VPWR VGND sky130_ef_sc_hd__decap_12
XFILLER_55_727 VGND VGND VPWR VPWR sky130_fd_sc_hd__fill_1
XFILLER_90_590 VPWR VGND VPWR VGND sky130_ef_sc_hd__decap_12
XTAP_TAPCELL_ROW_35_1_1040 VGND VPWR sky130_fd_sc_hd__tapvpwrvgnd_1
XFILLER_50_421 VPWR VGND VPWR VGND sky130_ef_sc_hd__decap_12
XFILLER_10_307 VGND VGND VPWR VPWR sky130_fd_sc_hd__fill_1
XFILLER_23_668 VPWR VGND VPWR VGND sky130_ef_sc_hd__decap_12
XFILLER_149_865 VGND VGND VPWR VPWR sky130_fd_sc_hd__decap_3
XFILLER_22_189 VGND VGND VPWR VPWR sky130_fd_sc_hd__decap_6
XTAP_TAPCELL_ROW_44_1093 VGND VPWR sky130_fd_sc_hd__tapvpwrvgnd_1
XTAP_TAPCELL_ROW_125_2_2290 VGND VPWR sky130_fd_sc_hd__tapvpwrvgnd_1
XFILLER_144_581 VGND VGND VPWR VPWR sky130_fd_sc_hd__decap_6
XFILLER_78_808 VPWR VGND VPWR VGND sky130_ef_sc_hd__decap_12
XFILLER_77_27 VPWR VGND VPWR VGND sky130_ef_sc_hd__decap_12
XTAP_TAPCELL_ROW_6_801 VGND VPWR sky130_fd_sc_hd__tapvpwrvgnd_1
XTAP_TAPCELL_ROW_117_2_2249 VGND VPWR sky130_fd_sc_hd__tapvpwrvgnd_1
XFILLER_133_55 VGND VGND VPWR VPWR sky130_fd_sc_hd__fill_1
XFILLER_93_15 VPWR VGND VPWR VGND sky130_ef_sc_hd__decap_12
XFILLER_46_749 VGND VGND VPWR VPWR sky130_fd_sc_hd__decap_6
XFILLER_58_587 VGND VGND VPWR VPWR sky130_fd_sc_hd__fill_1
XFILLER_45_237 VPWR VGND VPWR VGND sky130_ef_sc_hd__decap_12
XTAP_TAPCELL_ROW_142_1766 VGND VPWR sky130_fd_sc_hd__tapvpwrvgnd_1
XTAP_TAPCELL_ROW_142_1755 VGND VPWR sky130_fd_sc_hd__tapvpwrvgnd_1
XTAP_TAPCELL_ROW_132_1_1690 VGND VPWR sky130_fd_sc_hd__tapvpwrvgnd_1
XTAP_TAPCELL_ROW_142_1744 VGND VPWR sky130_fd_sc_hd__tapvpwrvgnd_1
XFILLER_26_53 VPWR VGND VPWR VGND sky130_ef_sc_hd__decap_12
XFILLER_14_602 VGND VGND VPWR VPWR sky130_fd_sc_hd__fill_1
XTAP_TAPCELL_ROW_64_1414 VGND VPWR sky130_fd_sc_hd__tapvpwrvgnd_1
XTAP_TAPCELL_ROW_64_1425 VGND VPWR sky130_fd_sc_hd__tapvpwrvgnd_1
XFILLER_81_590 VPWR VGND VPWR VGND sky130_ef_sc_hd__decap_12
XFILLER_54_793 VPWR VGND VPWR VGND sky130_ef_sc_hd__decap_12
XTAP_TAPCELL_ROW_64_1436 VGND VPWR sky130_fd_sc_hd__tapvpwrvgnd_1
XFILLER_26_97 VPWR VGND VPWR VGND sky130_ef_sc_hd__decap_12
XFILLER_53_281 VPWR VGND VPWR VGND sky130_ef_sc_hd__decap_12
XFILLER_9_105 VGND VGND VPWR VPWR sky130_fd_sc_hd__decap_6
XFILLER_9_149 VPWR VGND VPWR VGND sky130_ef_sc_hd__decap_12
XFILLER_42_41 VPWR VGND VPWR VGND sky130_ef_sc_hd__decap_12
XFILLER_42_85 VPWR VGND VPWR VGND sky130_ef_sc_hd__decap_12
XFILLER_10_885 VGND VGND VPWR VPWR sky130_fd_sc_hd__fill_1
XFILLER_114_209 VPWR VGND VPWR VGND sky130_ef_sc_hd__decap_12
XFILLER_6_867 VGND VGND VPWR VPWR sky130_fd_sc_hd__fill_1
XFILLER_142_529 VGND VGND VPWR VPWR sky130_fd_sc_hd__decap_3
XFILLER_107_250 VGND VGND VPWR VPWR sky130_fd_sc_hd__fill_1
XFILLER_69_808 VPWR VGND VPWR VGND sky130_ef_sc_hd__decap_12
XFILLER_123_798 VGND VGND VPWR VPWR sky130_fd_sc_hd__fill_1
XFILLER_122_253 VPWR VGND VPWR VGND sky130_ef_sc_hd__decap_12
XFILLER_1_561 VPWR VGND VPWR VGND sky130_ef_sc_hd__decap_12
XFILLER_3_57 VPWR VGND VPWR VGND sky130_ef_sc_hd__decap_12
XFILLER_77_874 VPWR VGND VPWR VGND sky130_ef_sc_hd__decap_12
XTAP_TAPCELL_ROW_41_1_1072 VGND VPWR sky130_fd_sc_hd__tapvpwrvgnd_1
XFILLER_92_822 VPWR VGND VPWR VGND sky130_ef_sc_hd__decap_12
XFILLER_64_513 VGND VGND VPWR VPWR sky130_fd_sc_hd__fill_2
XFILLER_64_557 VGND VGND VPWR VPWR sky130_fd_sc_hd__decap_3
XTAP_TAPCELL_ROW_80_4_2129 VGND VPWR sky130_fd_sc_hd__tapvpwrvgnd_1
XFILLER_72_590 VPWR VGND VPWR VGND sky130_ef_sc_hd__decap_12
XFILLER_44_281 VPWR VGND VPWR VGND sky130_ef_sc_hd__decap_12
XFILLER_149_117 VPWR VGND VPWR VGND sky130_ef_sc_hd__decap_12
XFILLER_20_616 VPWR VGND VPWR VGND sky130_ef_sc_hd__decap_12
XPHY_EDGE_ROW_69_2_Left_364 VGND VGND VPWR VPWR sky130_fd_sc_hd__decap_3
XFILLER_80_3 VPWR VGND VPWR VGND sky130_ef_sc_hd__decap_12
XFILLER_146_813 VPWR VGND VPWR VGND sky130_ef_sc_hd__decap_12
XTAP_TAPCELL_ROW_11_880 VGND VPWR sky130_fd_sc_hd__tapvpwrvgnd_1
XFILLER_59_329 VGND VGND VPWR VPWR sky130_fd_sc_hd__decap_6
XFILLER_28_716 VPWR VGND VPWR VGND sky130_ef_sc_hd__decap_12
XFILLER_83_844 VGND VGND VPWR VPWR sky130_fd_sc_hd__decap_4
XFILLER_82_310 VGND VGND VPWR VPWR sky130_fd_sc_hd__fill_1
XFILLER_103_47 VGND VGND VPWR VPWR sky130_fd_sc_hd__decap_3
XFILLER_27_237 VPWR VGND VPWR VGND sky130_ef_sc_hd__decap_12
XFILLER_51_741 VPWR VGND VPWR VGND sky130_ef_sc_hd__decap_12
XFILLER_35_281 VPWR VGND VPWR VGND sky130_ef_sc_hd__decap_12
XTAP_TAPCELL_ROW_46_1133 VGND VPWR sky130_fd_sc_hd__tapvpwrvgnd_1
XTAP_TAPCELL_ROW_46_1144 VGND VPWR sky130_fd_sc_hd__tapvpwrvgnd_1
XFILLER_50_251 VGND VGND VPWR VPWR sky130_fd_sc_hd__fill_1
XFILLER_51_785 VPWR VGND VPWR VGND sky130_ef_sc_hd__decap_12
XFILLER_137_824 VPWR VGND VPWR VGND sky130_ef_sc_hd__decap_12
XFILLER_149_673 VPWR VGND VPWR VGND sky130_ef_sc_hd__decap_12