*SPEF "ieee 1481-1999"
*DESIGN "Maximum_Path_Memory"
*DATE "17:59:32 Wednesday January 21, 2026"
*VENDOR "The OpenROAD Project"
*PROGRAM "OpenROAD"
*VERSION "edf00dff99f6c40d67a30c0e22a8191c5d2ed9d6"
*DESIGN_FLOW "NAME_SCOPE LOCAL" "PIN_CAP NONE"
*DIVIDER /
*DELIMITER :
*BUS_DELIMITER []
*T_UNIT 1 NS
*C_UNIT 1 PF
*R_UNIT 1 OHM
*L_UNIT 1 HENRY

*NAME_MAP
*3 prev_00[0]
*4 prev_00[1]
*5 prev_00[2]
*6 prev_00[3]
*7 prev_01[0]
*8 prev_01[1]
*9 prev_01[2]
*10 prev_01[3]
*11 prev_10[0]
*12 prev_10[1]
*13 prev_10[2]
*14 prev_10[3]
*15 prev_11[0]
*16 prev_11[1]
*17 prev_11[2]
*18 prev_11[3]
*19 winner_state[0]
*20 winner_state[1]
*21 _00_
*22 _01_
*23 _02_
*24 _03_
*25 _04_
*26 _05_
*27 _06_
*28 _07_
*29 _08_
*30 _09_
*31 _10_
*32 _11_
*33 _12_
*34 _13_
*35 _14_
*36 _15_
*37 _16_
*38 _17_
*39 _18_
*40 _19_
*41 _20_
*42 _21_
*43 _22_
*44 _23_
*45 _24_
*46 _25_
*47 _26_
*48 _27_
*49 _28_
*50 _29_
*51 _30_
*52 _31_
*53 _32_
*54 _33_
*55 _34_
*56 _35_
*57 _36_
*58 _37_
*59 _38_
*60 net1
*61 net10
*62 net11
*63 net12
*64 net13
*65 net14
*66 net15
*67 net16
*68 net17
*69 net18
*70 net2
*71 net3
*72 net4
*73 net5
*74 net6
*75 net7
*76 net8
*77 net9
*78 FILLER_0_109
*79 FILLER_0_113
*80 FILLER_0_125
*81 FILLER_0_137
*82 FILLER_0_141
*83 FILLER_0_15
*84 FILLER_0_153
*85 FILLER_0_165
*86 FILLER_0_169
*87 FILLER_0_181
*88 FILLER_0_189
*89 FILLER_0_27
*90 FILLER_0_29
*91 FILLER_0_3
*92 FILLER_0_41
*93 FILLER_0_53
*94 FILLER_0_57
*95 FILLER_0_69
*96 FILLER_0_81
*97 FILLER_0_85
*98 FILLER_0_97
*99 FILLER_10_103
*100 FILLER_10_109
*101 FILLER_10_121
*102 FILLER_10_133
*103 FILLER_10_139
*104 FILLER_10_141
*105 FILLER_10_15
*106 FILLER_10_153
*107 FILLER_10_165
*108 FILLER_10_177
*109 FILLER_10_189
*110 FILLER_10_27
*111 FILLER_10_29
*112 FILLER_10_3
*113 FILLER_10_41
*114 FILLER_10_53
*115 FILLER_10_65
*116 FILLER_10_77
*117 FILLER_10_83
*118 FILLER_10_85
*119 FILLER_10_91
*120 FILLER_11_105
*121 FILLER_11_111
*122 FILLER_11_138
*123 FILLER_11_15
*124 FILLER_11_152
*125 FILLER_11_164
*126 FILLER_11_169
*127 FILLER_11_175
*128 FILLER_11_185
*129 FILLER_11_189
*130 FILLER_11_27
*131 FILLER_11_3
*132 FILLER_11_39
*133 FILLER_11_51
*134 FILLER_11_55
*135 FILLER_11_57
*136 FILLER_11_65
*137 FILLER_11_77
*138 FILLER_11_81
*139 FILLER_11_98
*140 FILLER_12_101
*141 FILLER_12_112
*142 FILLER_12_15
*143 FILLER_12_160
*144 FILLER_12_172
*145 FILLER_12_184
*146 FILLER_12_27
*147 FILLER_12_29
*148 FILLER_12_3
*149 FILLER_12_41
*150 FILLER_12_53
*151 FILLER_12_59
*152 FILLER_12_80
*153 FILLER_13_101
*154 FILLER_13_106
*155 FILLER_13_113
*156 FILLER_13_128
*157 FILLER_13_138
*158 FILLER_13_15
*159 FILLER_13_150
*160 FILLER_13_154
*161 FILLER_13_158
*162 FILLER_13_166
*163 FILLER_13_172
*164 FILLER_13_180
*165 FILLER_13_184
*166 FILLER_13_23
*167 FILLER_13_29
*168 FILLER_13_37
*169 FILLER_13_41
*170 FILLER_13_49
*171 FILLER_13_54
*172 FILLER_13_57
*173 FILLER_13_6
*174 FILLER_13_63
*175 FILLER_13_76
*176 FILLER_13_80
*177 FILLER_13_85
*178 FILLER_1_105
*179 FILLER_1_111
*180 FILLER_1_113
*181 FILLER_1_125
*182 FILLER_1_137
*183 FILLER_1_149
*184 FILLER_1_15
*185 FILLER_1_161
*186 FILLER_1_167
*187 FILLER_1_169
*188 FILLER_1_181
*189 FILLER_1_185
*190 FILLER_1_27
*191 FILLER_1_3
*192 FILLER_1_39
*193 FILLER_1_51
*194 FILLER_1_55
*195 FILLER_1_57
*196 FILLER_1_69
*197 FILLER_1_81
*198 FILLER_1_93
*199 FILLER_2_109
*200 FILLER_2_121
*201 FILLER_2_133
*202 FILLER_2_139
*203 FILLER_2_141
*204 FILLER_2_15
*205 FILLER_2_153
*206 FILLER_2_165
*207 FILLER_2_177
*208 FILLER_2_189
*209 FILLER_2_27
*210 FILLER_2_29
*211 FILLER_2_3
*212 FILLER_2_41
*213 FILLER_2_53
*214 FILLER_2_65
*215 FILLER_2_77
*216 FILLER_2_83
*217 FILLER_2_85
*218 FILLER_2_97
*219 FILLER_3_105
*220 FILLER_3_111
*221 FILLER_3_113
*222 FILLER_3_125
*223 FILLER_3_137
*224 FILLER_3_149
*225 FILLER_3_15
*226 FILLER_3_161
*227 FILLER_3_167
*228 FILLER_3_169
*229 FILLER_3_181
*230 FILLER_3_189
*231 FILLER_3_27
*232 FILLER_3_3
*233 FILLER_3_39
*234 FILLER_3_51
*235 FILLER_3_55
*236 FILLER_3_57
*237 FILLER_3_69
*238 FILLER_3_81
*239 FILLER_3_93
*240 FILLER_4_109
*241 FILLER_4_121
*242 FILLER_4_133
*243 FILLER_4_139
*244 FILLER_4_141
*245 FILLER_4_15
*246 FILLER_4_153
*247 FILLER_4_165
*248 FILLER_4_177
*249 FILLER_4_189
*250 FILLER_4_27
*251 FILLER_4_29
*252 FILLER_4_3
*253 FILLER_4_41
*254 FILLER_4_53
*255 FILLER_4_65
*256 FILLER_4_77
*257 FILLER_4_83
*258 FILLER_4_85
*259 FILLER_4_97
*260 FILLER_5_105
*261 FILLER_5_111
*262 FILLER_5_113
*263 FILLER_5_125
*264 FILLER_5_137
*265 FILLER_5_149
*266 FILLER_5_15
*267 FILLER_5_161
*268 FILLER_5_167
*269 FILLER_5_169
*270 FILLER_5_181
*271 FILLER_5_189
*272 FILLER_5_27
*273 FILLER_5_3
*274 FILLER_5_39
*275 FILLER_5_51
*276 FILLER_5_55
*277 FILLER_5_57
*278 FILLER_5_69
*279 FILLER_5_81
*280 FILLER_5_93
*281 FILLER_6_109
*282 FILLER_6_121
*283 FILLER_6_133
*284 FILLER_6_139
*285 FILLER_6_141
*286 FILLER_6_15
*287 FILLER_6_153
*288 FILLER_6_165
*289 FILLER_6_177
*290 FILLER_6_189
*291 FILLER_6_27
*292 FILLER_6_29
*293 FILLER_6_3
*294 FILLER_6_41
*295 FILLER_6_53
*296 FILLER_6_65
*297 FILLER_6_77
*298 FILLER_6_83
*299 FILLER_6_85
*300 FILLER_6_97
*301 FILLER_7_105
*302 FILLER_7_111
*303 FILLER_7_113
*304 FILLER_7_125
*305 FILLER_7_137
*306 FILLER_7_149
*307 FILLER_7_15
*308 FILLER_7_161
*309 FILLER_7_167
*310 FILLER_7_169
*311 FILLER_7_181
*312 FILLER_7_189
*313 FILLER_7_27
*314 FILLER_7_3
*315 FILLER_7_39
*316 FILLER_7_51
*317 FILLER_7_55
*318 FILLER_7_57
*319 FILLER_7_69
*320 FILLER_7_81
*321 FILLER_7_93
*322 FILLER_8_109
*323 FILLER_8_121
*324 FILLER_8_133
*325 FILLER_8_139
*326 FILLER_8_141
*327 FILLER_8_15
*328 FILLER_8_153
*329 FILLER_8_165
*330 FILLER_8_177
*331 FILLER_8_189
*332 FILLER_8_27
*333 FILLER_8_29
*334 FILLER_8_3
*335 FILLER_8_41
*336 FILLER_8_53
*337 FILLER_8_65
*338 FILLER_8_77
*339 FILLER_8_83
*340 FILLER_8_85
*341 FILLER_8_97
*342 FILLER_9_105
*343 FILLER_9_111
*344 FILLER_9_113
*345 FILLER_9_125
*346 FILLER_9_137
*347 FILLER_9_149
*348 FILLER_9_15
*349 FILLER_9_161
*350 FILLER_9_167
*351 FILLER_9_169
*352 FILLER_9_181
*353 FILLER_9_189
*354 FILLER_9_27
*355 FILLER_9_3
*356 FILLER_9_39
*357 FILLER_9_51
*358 FILLER_9_55
*359 FILLER_9_57
*360 FILLER_9_69
*361 FILLER_9_81
*362 FILLER_9_93
*363 PHY_EDGE_ROW_0_Left_14
*364 PHY_EDGE_ROW_0_Right_0
*365 PHY_EDGE_ROW_10_Left_24
*366 PHY_EDGE_ROW_10_Right_10
*367 PHY_EDGE_ROW_11_Left_25
*368 PHY_EDGE_ROW_11_Right_11
*369 PHY_EDGE_ROW_12_Left_26
*370 PHY_EDGE_ROW_12_Right_12
*371 PHY_EDGE_ROW_13_Left_27
*372 PHY_EDGE_ROW_13_Right_13
*373 PHY_EDGE_ROW_1_Left_15
*374 PHY_EDGE_ROW_1_Right_1
*375 PHY_EDGE_ROW_2_Left_16
*376 PHY_EDGE_ROW_2_Right_2
*377 PHY_EDGE_ROW_3_Left_17
*378 PHY_EDGE_ROW_3_Right_3
*379 PHY_EDGE_ROW_4_Left_18
*380 PHY_EDGE_ROW_4_Right_4
*381 PHY_EDGE_ROW_5_Left_19
*382 PHY_EDGE_ROW_5_Right_5
*383 PHY_EDGE_ROW_6_Left_20
*384 PHY_EDGE_ROW_6_Right_6
*385 PHY_EDGE_ROW_7_Left_21
*386 PHY_EDGE_ROW_7_Right_7
*387 PHY_EDGE_ROW_8_Left_22
*388 PHY_EDGE_ROW_8_Right_8
*389 PHY_EDGE_ROW_9_Left_23
*390 PHY_EDGE_ROW_9_Right_9
*391 TAP_TAPCELL_ROW_0_28
*392 TAP_TAPCELL_ROW_0_29
*393 TAP_TAPCELL_ROW_0_30
*394 TAP_TAPCELL_ROW_0_31
*395 TAP_TAPCELL_ROW_0_32
*396 TAP_TAPCELL_ROW_0_33
*397 TAP_TAPCELL_ROW_10_61
*398 TAP_TAPCELL_ROW_10_62
*399 TAP_TAPCELL_ROW_10_63
*400 TAP_TAPCELL_ROW_11_64
*401 TAP_TAPCELL_ROW_11_65
*402 TAP_TAPCELL_ROW_11_66
*403 TAP_TAPCELL_ROW_12_67
*404 TAP_TAPCELL_ROW_12_68
*405 TAP_TAPCELL_ROW_12_69
*406 TAP_TAPCELL_ROW_13_70
*407 TAP_TAPCELL_ROW_13_71
*408 TAP_TAPCELL_ROW_13_72
*409 TAP_TAPCELL_ROW_13_73
*410 TAP_TAPCELL_ROW_13_74
*411 TAP_TAPCELL_ROW_13_75
*412 TAP_TAPCELL_ROW_1_34
*413 TAP_TAPCELL_ROW_1_35
*414 TAP_TAPCELL_ROW_1_36
*415 TAP_TAPCELL_ROW_2_37
*416 TAP_TAPCELL_ROW_2_38
*417 TAP_TAPCELL_ROW_2_39
*418 TAP_TAPCELL_ROW_3_40
*419 TAP_TAPCELL_ROW_3_41
*420 TAP_TAPCELL_ROW_3_42
*421 TAP_TAPCELL_ROW_4_43
*422 TAP_TAPCELL_ROW_4_44
*423 TAP_TAPCELL_ROW_4_45
*424 TAP_TAPCELL_ROW_5_46
*425 TAP_TAPCELL_ROW_5_47
*426 TAP_TAPCELL_ROW_5_48
*427 TAP_TAPCELL_ROW_6_49
*428 TAP_TAPCELL_ROW_6_50
*429 TAP_TAPCELL_ROW_6_51
*430 TAP_TAPCELL_ROW_7_52
*431 TAP_TAPCELL_ROW_7_53
*432 TAP_TAPCELL_ROW_7_54
*433 TAP_TAPCELL_ROW_8_55
*434 TAP_TAPCELL_ROW_8_56
*435 TAP_TAPCELL_ROW_8_57
*436 TAP_TAPCELL_ROW_9_58
*437 TAP_TAPCELL_ROW_9_59
*438 TAP_TAPCELL_ROW_9_60
*439 _39_
*440 _40_
*441 _41_
*442 _42_
*443 _43_
*444 _44_
*445 _45_
*446 _46_
*447 _47_
*448 _48_
*449 _49_
*450 _50_
*451 _51_
*452 _52_
*453 _53_
*454 _54_
*455 _55_
*456 _56_
*457 _57_
*458 _58_
*459 _59_
*460 _60_
*461 _61_
*462 _62_
*463 _63_
*464 _64_
*465 _65_
*466 _66_
*467 _67_
*468 _68_
*469 _69_
*470 _70_
*471 _71_
*472 _72_
*473 _73_
*474 _74_
*475 _75_
*476 _76_
*477 _77_
*478 _78_
*479 _79_
*480 input1
*481 input10
*482 input11
*483 input12
*484 input13
*485 input14
*486 input15
*487 input16
*488 input2
*489 input3
*490 input4
*491 input5
*492 input6
*493 input7
*494 input8
*495 input9
*496 output17
*497 output18

*PORTS
prev_00[0] I
prev_00[1] I
prev_00[2] I
prev_00[3] I
prev_01[0] I
prev_01[1] I
prev_01[2] I
prev_01[3] I
prev_10[0] I
prev_10[1] I
prev_10[2] I
prev_10[3] I
prev_11[0] I
prev_11[1] I
prev_11[2] I
prev_11[3] I
winner_state[0] O
winner_state[1] O

*D_NET *3 0.00100077
*CONN
*P prev_00[0] I
*I *480:A I *D sky130_fd_sc_hd__buf_1
*CAP
1 prev_00[0] 0.000500385
2 *480:A 0.000500385
*RES
1 prev_00[0] *480:A 23.4786 
*END

*D_NET *4 0.000844139
*CONN
*P prev_00[1] I
*I *488:A I *D sky130_fd_sc_hd__buf_1
*CAP
1 prev_00[1] 0.000406136
2 *488:A 0.000406136
3 *488:A *60:12 3.18676e-05
*RES
1 prev_00[1] *488:A 21.8357 
*END

*D_NET *5 0.000844139
*CONN
*P prev_00[2] I
*I *489:A I *D sky130_fd_sc_hd__clkbuf_1
*CAP
1 prev_00[2] 0.000406136
2 *489:A 0.000406136
3 *489:A *60:12 3.18676e-05
*RES
1 prev_00[2] *489:A 21.8357 
*END

*D_NET *6 0.000883529
*CONN
*P prev_00[3] I
*I *490:A I *D sky130_fd_sc_hd__buf_1
*CAP
1 prev_00[3] 0.00042608
2 *490:A 0.00042608
3 *490:A *60:12 3.13687e-05
*RES
1 prev_00[3] *490:A 21.8357 
*END

*D_NET *7 0.000889665
*CONN
*P prev_01[0] I
*I *491:A I *D sky130_fd_sc_hd__clkbuf_1
*CAP
1 prev_01[0] 0.000401284
2 *491:A 0.000401284
3 *491:A *60:12 3.18676e-05
4 *491:A *72:16 5.52302e-05
*RES
1 prev_01[0] *491:A 21.8357 
*END

*D_NET *8 0.00168523
*CONN
*P prev_01[1] I
*I *492:A I *D sky130_fd_sc_hd__clkbuf_1
*CAP
1 prev_01[1] 0.000503503
2 *492:A 0.000503503
3 *492:A *446:B 1.28809e-05
4 *492:A *447:A2 8.87062e-05
5 *492:A *454:A1 5.95236e-05
6 *492:A *72:16 0.000459969
7 *492:A *73:8 5.71472e-05
*RES
1 prev_01[1] *492:A 25.6571 
*END

*D_NET *9 0.000882405
*CONN
*P prev_01[2] I
*I *493:A I *D sky130_fd_sc_hd__clkbuf_1
*CAP
1 prev_01[2] 0.000397654
2 *493:A 0.000397654
3 *493:A *471:A1 0
4 *493:A *53:18 3.18676e-05
5 *493:A *72:16 5.52302e-05
*RES
1 prev_01[2] *493:A 21.8357 
*END

*D_NET *10 0.00165974
*CONN
*P prev_01[3] I
*I *494:A I *D sky130_fd_sc_hd__buf_1
*CAP
1 prev_01[3] 0.000630997
2 *494:A 0.000630997
3 *494:A *449:A 0.000241893
4 *494:A *451:A2 9.47712e-05
5 *494:A *452:A2 2.89016e-05
6 *494:A *72:20 4.46186e-06
7 *494:A *76:12 2.77143e-05
*RES
1 prev_01[3] *494:A 26.1929 
*END

*D_NET *11 0.000844223
*CONN
*P prev_10[0] I
*I *495:A I *D sky130_fd_sc_hd__clkbuf_1
*CAP
1 prev_10[0] 0.000422112
2 *495:A 0.000422112
*RES
1 prev_10[0] *495:A 21.8357 
*END

*D_NET *12 0.00172325
*CONN
*P prev_10[1] I
*I *481:A I *D sky130_fd_sc_hd__clkbuf_1
*CAP
1 prev_10[1] 0.000632933
2 *481:A 0.000632933
3 *481:A *439:A 0
4 *481:A *456:A_N 0.000142556
5 *481:A *456:B 3.04944e-05
6 *481:A *458:A1 5.17614e-05
7 *481:A *464:B1 4.72917e-05
8 *481:A *61:10 0.000137983
9 *481:A *65:16 4.72917e-05
10 *481:A *65:37 0
11 *481:A *67:34 0
*RES
1 prev_10[1] *481:A 27.6571 
*END

*D_NET *13 0.000885464
*CONN
*P prev_10[2] I
*I *482:A I *D sky130_fd_sc_hd__buf_1
*CAP
1 prev_10[2] 0.000398331
2 *482:A 0.000398331
3 *482:A *464:B1 1.55885e-05
4 *482:A *65:16 5.52302e-05
5 *482:A *65:37 1.19309e-05
6 *482:A *67:34 6.05161e-06
*RES
1 prev_10[2] *482:A 21.8357 
*END

*D_NET *14 0.00132587
*CONN
*P prev_10[3] I
*I *483:A I *D sky130_fd_sc_hd__buf_1
*CAP
1 prev_10[3] 0.00058008
2 *483:A 0.00058008
3 *483:A *462:B1 0.00014285
4 *483:A *484:A 0
5 *483:A *65:16 2.28598e-05
*RES
1 prev_10[3] *483:A 26.55 
*END

*D_NET *15 0.00102025
*CONN
*P prev_11[0] I
*I *484:A I *D sky130_fd_sc_hd__clkbuf_1
*CAP
1 prev_11[0] 0.00043774
2 *484:A 0.00043774
3 *484:A *65:16 0.000144773
4 *483:A *484:A 0
*RES
1 prev_11[0] *484:A 22.6571 
*END

*D_NET *16 0.00103896
*CONN
*P prev_11[1] I
*I *485:A I *D sky130_fd_sc_hd__buf_1
*CAP
1 prev_11[1] 0.000468998
2 *485:A 0.000468998
3 *485:A *65:16 0.00010096
*RES
1 prev_11[1] *485:A 23.0679 
*END

*D_NET *17 0.000939797
*CONN
*P prev_11[2] I
*I *486:A I *D sky130_fd_sc_hd__buf_1
*CAP
1 prev_11[2] 0.000469898
2 *486:A 0.000469898
*RES
1 prev_11[2] *486:A 22.6571 
*END

*D_NET *18 0.000957907
*CONN
*P prev_11[3] I
*I *487:A I *D sky130_fd_sc_hd__buf_1
*CAP
1 prev_11[3] 0.000478953
2 *487:A 0.000478953
*RES
1 prev_11[3] *487:A 23.0679 
*END

*D_NET *19 0.000431453
*CONN
*P winner_state[0] O
*I *496:X O *D sky130_fd_sc_hd__buf_2
*CAP
1 winner_state[0] 0.000215726
2 *496:X 0.000215726
*RES
1 *496:X winner_state[0] 18.1229 
*END

*D_NET *20 0.000459972
*CONN
*P winner_state[1] O
*I *497:X O *D sky130_fd_sc_hd__buf_2
*CAP
1 winner_state[1] 0.000229986
2 *497:X 0.000229986
3 winner_state[1] *497:A 0
*RES
1 *497:X winner_state[1] 18.4264 
*END

*D_NET *21 0.00149393
*CONN
*I *464:A2 I *D sky130_fd_sc_hd__o221a_1
*I *439:Y O *D sky130_fd_sc_hd__inv_2
*CAP
1 *464:A2 0.000178729
2 *439:Y 0.000178729
3 *464:A2 *464:B1 0.000449049
4 *464:A2 *46:40 8.6229e-06
5 *464:A2 *62:12 0.000258996
6 *464:A2 *62:29 0.000320037
7 *464:A2 *63:29 9.97669e-05
*RES
1 *439:Y *464:A2 34.4214 
*END

*D_NET *22 0.000547647
*CONN
*I *468:A0 I *D sky130_fd_sc_hd__mux2_1
*I *440:Y O *D sky130_fd_sc_hd__inv_2
*CAP
1 *468:A0 4.95592e-05
2 *440:Y 4.95592e-05
3 *468:A0 *463:C1 3.18676e-05
4 *468:A0 *479:A1 5.52302e-05
5 *468:A0 *23:12 0.000117621
6 *468:A0 *46:12 9.90367e-05
7 *468:A0 *46:40 0.000144773
*RES
1 *440:Y *468:A0 21.1893 
*END

*D_NET *23 0.00195546
*CONN
*I *468:A1 I *D sky130_fd_sc_hd__mux2_1
*I *463:C1 I *D sky130_fd_sc_hd__a211o_1
*I *441:Y O *D sky130_fd_sc_hd__inv_2
*CAP
1 *468:A1 0
2 *463:C1 0.000282257
3 *441:Y 0.000456898
4 *23:12 0.000739155
5 *463:C1 *463:B1 1.02504e-05
6 *463:C1 *464:A1 0
7 *463:C1 *475:A 3.48013e-05
8 *463:C1 *477:B 1.18451e-05
9 *463:C1 *46:10 0
10 *463:C1 *46:40 8.71761e-05
11 *23:12 *440:A 0
12 *23:12 *479:A1 0.000183591
13 *468:A0 *463:C1 3.18676e-05
14 *468:A0 *23:12 0.000117621
*RES
1 *441:Y *23:12 24.8 
2 *23:12 *463:C1 22.5321 
3 *23:12 *468:A1 9.3 
*END

*D_NET *24 0.00096767
*CONN
*I *453:A2 I *D sky130_fd_sc_hd__o221a_2
*I *442:Y O *D sky130_fd_sc_hd__inv_2
*CAP
1 *453:A2 0.000123493
2 *442:Y 0.000123493
3 *453:A2 *448:B 0.000123295
4 *453:A2 *452:C1 0.000164835
5 *453:A2 *53:18 0.000309266
6 *453:A2 *75:10 0.000123288
*RES
1 *442:Y *453:A2 32.2429 
*END

*D_NET *25 0.0011104
*CONN
*I *452:C1 I *D sky130_fd_sc_hd__a211o_1
*I *443:Y O *D sky130_fd_sc_hd__inv_2
*CAP
1 *452:C1 0.000164219
2 *443:Y 0.000164219
3 *452:C1 *452:A1 7.32745e-06
4 *452:C1 *453:B1 1.28809e-05
5 *452:C1 *453:C1 3.91794e-05
6 *452:C1 *30:33 1.57816e-05
7 *452:C1 *35:10 0.000185643
8 *452:C1 *35:49 0.000306311
9 *452:C1 *53:18 5.0005e-05
10 *453:A2 *452:C1 0.000164835
*RES
1 *443:Y *452:C1 24.0821 
*END

*D_NET *26 0.000400412
*CONN
*I *447:B1 I *D sky130_fd_sc_hd__a21oi_1
*I *444:X O *D sky130_fd_sc_hd__and2b_1
*CAP
1 *447:B1 0.00013283
2 *444:X 0.00013283
3 *447:B1 *444:A_N 9.90367e-05
4 *447:B1 *447:A2 3.57163e-05
5 *447:B1 *75:16 0
*RES
1 *444:X *447:B1 29.8857 
*END

*D_NET *27 0.00116302
*CONN
*I *447:A1 I *D sky130_fd_sc_hd__a21oi_1
*I *445:Y O *D sky130_fd_sc_hd__nand2b_1
*CAP
1 *447:A1 0.00037056
2 *445:Y 0.00037056
3 *447:A1 *454:A0 0
4 *447:A1 *470:A_N 9.90431e-05
5 *447:A1 *470:B 6.95106e-05
6 *447:A1 *71:16 0.000253348
*RES
1 *445:Y *447:A1 34.8143 
*END

*D_NET *28 0.00135393
*CONN
*I *447:A2 I *D sky130_fd_sc_hd__a21oi_1
*I *446:Y O *D sky130_fd_sc_hd__nand2b_1
*CAP
1 *447:A2 0.000347477
2 *446:Y 0.000347477
3 *447:A2 *454:A1 5.52238e-05
4 *447:A2 *470:B 2.26424e-05
5 *447:A2 *471:B1 0.000287842
6 *447:A2 *53:18 9.60875e-05
7 *447:A2 *74:8 4.43046e-05
8 *447:A2 *74:14 2.84494e-05
9 *447:A2 *75:16 0
10 *447:B1 *447:A2 3.57163e-05
11 *492:A *447:A2 8.87062e-05
*RES
1 *446:Y *447:A2 35.4036 
*END

*D_NET *29 0.00160404
*CONN
*I *453:B1 I *D sky130_fd_sc_hd__o221a_2
*I *447:Y O *D sky130_fd_sc_hd__a21oi_1
*CAP
1 *453:B1 0.0004162
2 *447:Y 0.0004162
3 *453:B1 *448:A 0
4 *453:B1 *451:A1 1.12323e-05
5 *453:B1 *451:B1 6.54144e-05
6 *453:B1 *467:A1 0.000196792
7 *453:B1 *467:S 5.52238e-05
8 *453:B1 *30:10 0.000202636
9 *453:B1 *53:18 6.26774e-06
10 *453:B1 *71:16 0.000122159
11 *453:B1 *75:16 9.90367e-05
12 *452:C1 *453:B1 1.28809e-05
*RES
1 *447:Y *453:B1 36.8723 
*END

*D_NET *30 0.00533758
*CONN
*I *475:C I *D sky130_fd_sc_hd__and3_1
*I *477:A_N I *D sky130_fd_sc_hd__nand2b_1
*I *452:A1 I *D sky130_fd_sc_hd__a211o_1
*I *451:A1 I *D sky130_fd_sc_hd__a21o_1
*I *448:Y O *D sky130_fd_sc_hd__nand2_1
*CAP
1 *475:C 4.25273e-05
2 *477:A_N 2.60495e-06
3 *452:A1 1.81141e-05
4 *451:A1 0.000156788
5 *448:Y 0.000265378
6 *30:56 0.00108848
7 *30:33 0.00127482
8 *30:10 0.000635523
9 *451:A1 *449:B 5.83304e-05
10 *451:A1 *451:B1 2.37761e-05
11 *451:A1 *452:A2 0
12 *451:A1 *452:B1 5.01876e-06
13 *451:A1 *453:B2 0.000117893
14 *475:C *477:B 0.000143539
15 *475:C *46:40 8.29063e-05
16 *475:C *50:18 1.69961e-05
17 *477:A_N *477:B 1.5129e-06
18 *477:A_N *50:18 1.66679e-05
19 *30:10 *448:A 3.18676e-05
20 *30:10 *467:S 9.03127e-05
21 *30:10 *35:49 5.61616e-05
22 *30:33 *449:B 0
23 *30:33 *452:B1 4.34543e-05
24 *30:33 *453:C1 3.98547e-05
25 *30:33 *35:49 9.25014e-06
26 *30:56 *453:C1 8.07313e-05
27 *30:56 *458:A2 0
28 *30:56 *465:A1 4.87953e-05
29 *30:56 *465:S 0.000177206
30 *30:56 *472:A1 0.000170747
31 *30:56 *475:B 9.87983e-06
32 *30:56 *42:6 2.89016e-05
33 *30:56 *46:40 0.000114751
34 *30:56 *53:18 0.000121724
35 *30:56 *54:10 9.71197e-05
36 *30:56 *67:34 2.89669e-05
37 *452:C1 *452:A1 7.32745e-06
38 *452:C1 *30:33 1.57816e-05
39 *453:B1 *451:A1 1.12323e-05
40 *453:B1 *30:10 0.000202636
*RES
1 *448:Y *30:10 19.0768 
2 *30:10 *451:A1 17.4696 
3 *30:10 *30:33 7.8125 
4 *30:33 *452:A1 9.72857 
5 *30:33 *30:56 25.9464 
6 *30:56 *477:A_N 9.45625 
7 *30:56 *475:C 10.9429 
*END

*D_NET *31 0.000997854
*CONN
*I *452:A2 I *D sky130_fd_sc_hd__a211o_1
*I *451:A2 I *D sky130_fd_sc_hd__a21o_1
*I *449:X O *D sky130_fd_sc_hd__or2_1
*CAP
1 *452:A2 0.000185579
2 *451:A2 6.56374e-05
3 *449:X 0
4 *31:4 0.000251217
5 *451:A2 *449:A 5.71472e-05
6 *451:A2 *76:8 0.000230482
7 *451:A2 *76:12 1.24368e-05
8 *452:A2 *452:B1 4.1331e-06
9 *452:A2 *466:B 2.56601e-05
10 *452:A2 *76:8 4.18895e-05
11 *452:A2 *77:10 0
12 *451:A1 *452:A2 0
13 *494:A *451:A2 9.47712e-05
14 *494:A *452:A2 2.89016e-05
*RES
1 *449:X *31:4 9.3 
2 *31:4 *451:A2 11.9071 
3 *31:4 *452:A2 21.3893 
*END

*D_NET *32 0.00103855
*CONN
*I *451:B1 I *D sky130_fd_sc_hd__a21o_1
*I *450:X O *D sky130_fd_sc_hd__xor2_1
*CAP
1 *451:B1 0.00019722
2 *450:X 0.00019722
3 *451:B1 *448:A 0.00019484
4 *451:B1 *449:A 5.52302e-05
5 *451:B1 *453:B2 5.86416e-05
6 *451:B1 *72:20 0.000217298
7 *451:B1 *76:12 2.89114e-05
8 *451:A1 *451:B1 2.37761e-05
9 *453:B1 *451:B1 6.54144e-05
*RES
1 *450:X *451:B1 33.4214 
*END

*D_NET *33 0.000642104
*CONN
*I *453:B2 I *D sky130_fd_sc_hd__o221a_2
*I *451:X O *D sky130_fd_sc_hd__a21o_1
*CAP
1 *453:B2 0.000163793
2 *451:X 0.000163793
3 *453:B2 *76:12 0.000137983
4 *451:A1 *453:B2 0.000117893
5 *451:B1 *453:B2 5.86416e-05
*RES
1 *451:X *453:B2 30.6 
*END

*D_NET *34 0.00064079
*CONN
*I *453:C1 I *D sky130_fd_sc_hd__o221a_2
*I *452:X O *D sky130_fd_sc_hd__a211o_1
*CAP
1 *453:C1 8.19717e-05
2 *452:X 8.19717e-05
3 *453:C1 *53:18 0.000317082
4 *452:C1 *453:C1 3.91794e-05
5 *30:33 *453:C1 3.98547e-05
6 *30:56 *453:C1 8.07313e-05
*RES
1 *452:X *453:C1 22.0286 
*END

*D_NET *35 0.0114574
*CONN
*I *479:A0 I *D sky130_fd_sc_hd__mux2_1
*I *467:S I *D sky130_fd_sc_hd__mux2_1
*I *470:B I *D sky130_fd_sc_hd__nand2b_1
*I *471:A2 I *D sky130_fd_sc_hd__o21ai_1
*I *454:S I *D sky130_fd_sc_hd__mux2_1
*I *453:X O *D sky130_fd_sc_hd__o221a_2
*CAP
1 *479:A0 0.00302593
2 *467:S 0.000103011
3 *470:B 0.000154711
4 *471:A2 3.89618e-05
5 *454:S 4.24049e-05
6 *453:X 0
7 *35:49 0.00338087
8 *35:21 0.000200224
9 *35:10 0.000426207
10 *35:4 0.000629181
11 *454:S *70:27 9.71197e-05
12 *454:S *74:14 0.000139913
13 *467:S *452:B1 2.05413e-05
14 *467:S *466:B 0
15 *467:S *467:A1 9.60875e-05
16 *467:S *71:25 1.98839e-05
17 *470:B *444:A_N 3.01012e-05
18 *470:B *470:A_N 0
19 *470:B *471:B1 0.000159929
20 *470:B *71:16 7.1434e-05
21 *471:A2 *444:A_N 1.12323e-05
22 *471:A2 *471:A1 0.000103267
23 *471:A2 *471:B1 5.69387e-05
24 *479:A0 *475:B 0.000208341
25 *479:A0 *479:A1 0.000194432
26 *479:A0 *497:A 9.59532e-06
27 *479:A0 *64:16 0.00076249
28 *479:A0 *66:12 0.000133961
29 *479:A0 *67:18 0
30 *35:10 *444:A_N 9.77274e-05
31 *35:10 *466:B 0.000163529
32 *35:10 *53:18 3.08247e-05
33 *35:10 *74:14 0.0002083
34 *35:21 *444:A_N 2.04825e-05
35 *35:49 *452:B1 2.47507e-05
36 *447:A1 *470:B 6.95106e-05
37 *447:A2 *470:B 2.26424e-05
38 *452:C1 *35:10 0.000185643
39 *452:C1 *35:49 0.000306311
40 *453:B1 *467:S 5.52238e-05
41 *30:10 *467:S 9.03127e-05
42 *30:10 *35:49 5.61616e-05
43 *30:33 *35:49 9.25014e-06
*RES
1 *453:X *35:4 9.3 
2 *35:4 *35:10 7.85714 
3 *35:10 *454:S 10.6571 
4 *35:10 *35:21 4.77679 
5 *35:21 *471:A2 15.2911 
6 *35:21 *470:B 17.7107 
7 *35:4 *35:49 8.38393 
8 *35:49 *467:S 16.3446 
9 *35:49 *479:A0 27.2136 
*END

*D_NET *36 0.00323738
*CONN
*I *466:B I *D sky130_fd_sc_hd__nand2b_1
*I *454:X O *D sky130_fd_sc_hd__mux2_1
*CAP
1 *466:B 0.00103825
2 *454:X 0.00103825
3 *466:B *452:B1 0
4 *466:B *457:A_N 0
5 *466:B *466:A_N 6.09439e-05
6 *466:B *49:12 7.70134e-06
7 *466:B *53:18 0.000903041
8 *466:B *64:16 0
9 *452:A2 *466:B 2.56601e-05
10 *467:S *466:B 0
11 *35:10 *466:B 0.000163529
*RES
1 *454:X *466:B 42.5152 
*END

*D_NET *37 0.000632363
*CONN
*I *458:B1 I *D sky130_fd_sc_hd__a21oi_1
*I *455:X O *D sky130_fd_sc_hd__and2b_1
*CAP
1 *458:B1 0.000168977
2 *455:X 0.000168977
3 *458:B1 *455:A_N 4.46186e-06
4 *458:B1 *458:A2 1.69115e-05
5 *458:B1 *46:40 7.61932e-05
6 *458:B1 *61:10 5.10822e-05
7 *458:B1 *65:37 0.00014576
*RES
1 *455:X *458:B1 30.9036 
*END

*D_NET *38 0.000191213
*CONN
*I *458:A1 I *D sky130_fd_sc_hd__a21oi_1
*I *456:Y O *D sky130_fd_sc_hd__nand2b_1
*CAP
1 *458:A1 1.92456e-05
2 *456:Y 1.92456e-05
3 *458:A1 *456:A_N 0.00010096
4 *481:A *458:A1 5.17614e-05
*RES
1 *456:Y *458:A1 19.5464 
*END

*D_NET *39 0.00194838
*CONN
*I *458:A2 I *D sky130_fd_sc_hd__a21oi_1
*I *457:Y O *D sky130_fd_sc_hd__nand2b_1
*CAP
1 *458:A2 0.000483579
2 *457:Y 0.000483579
3 *458:A2 *455:A_N 5.31101e-05
4 *458:A2 *456:B 0
5 *458:A2 *469:A 0.000150624
6 *458:A2 *472:A0 0
7 *458:A2 *472:A1 0
8 *458:A2 *473:A1 6.8165e-05
9 *458:A2 *473:B1 0.000224577
10 *458:A2 *474:B 0
11 *458:A2 *475:B 0
12 *458:A2 *476:A3 0
13 *458:A2 *49:12 0.000353073
14 *458:A2 *51:12 2.07491e-05
15 *458:A2 *54:10 0
16 *458:A2 *61:10 9.40095e-05
17 *458:A2 *67:34 0
18 *458:B1 *458:A2 1.69115e-05
19 *30:56 *458:A2 0
*RES
1 *457:Y *458:A2 37.8321 
*END

*D_NET *40 0.00215065
*CONN
*I *464:B1 I *D sky130_fd_sc_hd__o221a_1
*I *458:Y O *D sky130_fd_sc_hd__a21oi_1
*CAP
1 *464:B1 0.000418351
2 *458:Y 0.000418351
3 *464:B1 *464:C1 0.000143281
4 *464:B1 *42:6 0.000218679
5 *464:B1 *46:40 0.000109039
6 *464:B1 *61:10 5.33005e-05
7 *464:B1 *62:12 9.37828e-05
8 *464:B1 *65:16 9.22103e-06
9 *464:B1 *67:34 0.000174716
10 *464:A2 *464:B1 0.000449049
11 *481:A *464:B1 4.72917e-05
12 *482:A *464:B1 1.55885e-05
*RES
1 *458:Y *464:B1 37.725 
*END

*D_NET *41 0.00207319
*CONN
*I *462:A1 I *D sky130_fd_sc_hd__a21o_1
*I *463:A1 I *D sky130_fd_sc_hd__a211o_1
*I *477:B I *D sky130_fd_sc_hd__nand2b_1
*I *459:Y O *D sky130_fd_sc_hd__nand2_1
*CAP
1 *462:A1 4.90887e-05
2 *463:A1 0
3 *477:B 0.000295971
4 *459:Y 0
5 *41:8 0.000441567
6 *41:4 0.000194685
7 *462:A1 *462:A2 0.000103327
8 *462:A1 *63:25 1.45274e-05
9 *462:A1 *65:16 0.000274294
10 *462:A1 *67:22 2.59355e-05
11 *477:B *462:A2 9.25014e-06
12 *477:B *463:B1 5.80706e-06
13 *477:B *475:A 7.40571e-05
14 *477:B *475:B 6.09762e-05
15 *477:B *46:40 3.0182e-05
16 *477:B *50:18 6.05964e-05
17 *477:B *51:12 0
18 *477:B *63:29 1.99992e-05
19 *41:8 *459:A 2.26327e-05
20 *41:8 *462:A2 0.000154225
21 *41:8 *463:B1 3.45059e-05
22 *41:8 *67:18 4.46689e-05
23 *463:C1 *477:B 1.18451e-05
24 *475:C *477:B 0.000143539
25 *477:A_N *477:B 1.5129e-06
*RES
1 *459:Y *41:4 9.3 
2 *41:4 *41:8 7.66071 
3 *41:8 *477:B 19.0232 
4 *41:8 *463:A1 13.8 
5 *41:4 *462:A1 11.8893 
*END

*D_NET *42 0.00181752
*CONN
*I *463:A2 I *D sky130_fd_sc_hd__a211o_1
*I *462:A2 I *D sky130_fd_sc_hd__a21o_1
*I *460:X O *D sky130_fd_sc_hd__or2_1
*CAP
1 *463:A2 0
2 *462:A2 0.000159587
3 *460:X 8.85472e-05
4 *42:6 0.000248134
5 *462:A2 *459:A 3.34366e-05
6 *462:A2 *63:25 0.000250194
7 *462:A2 *63:29 0.00014101
8 *462:A2 *65:16 1.404e-05
9 *462:A2 *67:22 0.000107952
10 *42:6 *460:A 3.82641e-05
11 *42:6 *460:B 5.52302e-05
12 *42:6 *464:C1 9.60939e-05
13 *42:6 *46:40 7.06479e-05
14 *462:A1 *462:A2 0.000103327
15 *464:B1 *42:6 0.000218679
16 *477:B *462:A2 9.25014e-06
17 *30:56 *42:6 2.89016e-05
18 *41:8 *462:A2 0.000154225
*RES
1 *460:X *42:6 12.3 
2 *42:6 *462:A2 24.1214 
3 *42:6 *463:A2 9.3 
*END

*D_NET *43 0.000903171
*CONN
*I *462:B1 I *D sky130_fd_sc_hd__a21o_1
*I *461:X O *D sky130_fd_sc_hd__xor2_1
*CAP
1 *462:B1 0.000219497
2 *461:X 0.000219497
3 *462:B1 *464:A1 7.83659e-05
4 *462:B1 *62:29 5.62995e-05
5 *462:B1 *64:16 0
6 *462:B1 *65:16 0.000186662
7 *483:A *462:B1 0.00014285
*RES
1 *461:X *462:B1 32.2607 
*END

*D_NET *44 0.000513449
*CONN
*I *464:B2 I *D sky130_fd_sc_hd__o221a_1
*I *462:X O *D sky130_fd_sc_hd__a21o_1
*CAP
1 *464:B2 0.000189756
2 *462:X 0.000189756
3 *464:B2 *463:B1 0
4 *464:B2 *464:A1 3.48938e-05
5 *464:B2 *63:25 9.90431e-05
*RES
1 *462:X *464:B2 30.1893 
*END

*D_NET *45 0.000746747
*CONN
*I *464:C1 I *D sky130_fd_sc_hd__o221a_1
*I *463:X O *D sky130_fd_sc_hd__a211o_1
*CAP
1 *464:C1 0.000158044
2 *463:X 0.000158044
3 *464:C1 *460:A 5.33005e-05
4 *464:C1 *475:A 0.000137983
5 *464:B1 *464:C1 0.000143281
6 *42:6 *464:C1 9.60939e-05
*RES
1 *463:X *464:C1 22.4393 
*END

*D_NET *46 0.00656747
*CONN
*I *479:A1 I *D sky130_fd_sc_hd__mux2_1
*I *468:S I *D sky130_fd_sc_hd__mux2_1
*I *472:S I *D sky130_fd_sc_hd__mux2_1
*I *465:S I *D sky130_fd_sc_hd__mux2_1
*I *464:X O *D sky130_fd_sc_hd__o221a_1
*CAP
1 *479:A1 0.000418959
2 *468:S 0
3 *472:S 0
4 *465:S 7.87844e-05
5 *464:X 0.000116394
6 *46:40 0.000648135
7 *46:12 0.000582401
8 *46:10 0.000548404
9 *465:S *472:A1 5.52302e-05
10 *465:S *473:A1 0.000213172
11 *465:S *53:18 0.00014285
12 *465:S *61:25 1.5424e-05
13 *479:A1 *497:A 5.71472e-05
14 *479:A1 *69:10 0.000976066
15 *46:10 *440:A 5.94639e-05
16 *46:12 *69:10 8.76257e-05
17 *46:40 *472:A1 0.000185402
18 *46:40 *475:B 6.34072e-05
19 *46:40 *50:18 0.0001399
20 *46:40 *61:25 0.0001399
21 *46:40 *62:12 5.52238e-05
22 *46:40 *63:29 6.14239e-05
23 *46:40 *67:34 2.14824e-05
24 *46:40 *69:10 0.000466887
25 *458:B1 *46:40 7.61932e-05
26 *463:C1 *46:10 0
27 *463:C1 *46:40 8.71761e-05
28 *464:A2 *46:40 8.6229e-06
29 *464:B1 *46:40 0.000109039
30 *468:A0 *479:A1 5.52302e-05
31 *468:A0 *46:12 9.90367e-05
32 *468:A0 *46:40 0.000144773
33 *475:C *46:40 8.29063e-05
34 *477:B *46:40 3.0182e-05
35 *479:A0 *479:A1 0.000194432
36 *23:12 *479:A1 0.000183591
37 *30:56 *465:S 0.000177206
38 *30:56 *46:40 0.000114751
39 *42:6 *46:40 7.06479e-05
*RES
1 *464:X *46:10 20.2464 
2 *46:10 *46:12 0.946429 
3 *46:12 *46:40 25.9464 
4 *46:40 *465:S 13.1214 
5 *46:40 *472:S 9.3 
6 *46:12 *468:S 9.3 
7 *46:10 *479:A1 22.3 
*END

*D_NET *47 0.000450249
*CONN
*I *466:A_N I *D sky130_fd_sc_hd__nand2b_1
*I *465:X O *D sky130_fd_sc_hd__mux2_1
*CAP
1 *466:A_N 0.000153448
2 *465:X 0.000153448
3 *466:A_N *457:A_N 3.0292e-05
4 *466:A_N *49:12 5.21162e-05
5 *466:B *466:A_N 6.09439e-05
*RES
1 *465:X *466:A_N 30.725 
*END

*D_NET *48 0.000929142
*CONN
*I *473:B1 I *D sky130_fd_sc_hd__o211a_1
*I *466:Y O *D sky130_fd_sc_hd__nand2b_1
*CAP
1 *473:B1 0.000182989
2 *466:Y 0.000182989
3 *473:B1 *457:B 1.38106e-05
4 *473:B1 *469:A 0
5 *473:B1 *473:A1 4.1896e-06
6 *473:B1 *476:A1 5.33005e-05
7 *473:B1 *49:12 0.000249395
8 *473:B1 *51:12 1.78919e-05
9 *458:A2 *473:B1 0.000224577
*RES
1 *466:Y *473:B1 23.6714 
*END

*D_NET *49 0.00277961
*CONN
*I *469:A I *D sky130_fd_sc_hd__nand2_1
*I *474:A I *D sky130_fd_sc_hd__nor2_1
*I *467:X O *D sky130_fd_sc_hd__mux2_1
*CAP
1 *469:A 0.00013839
2 *474:A 0.000114759
3 *467:X 0.000551412
4 *49:12 0.000804561
5 *469:A *473:A1 6.05161e-06
6 *469:A *476:A3 1.37292e-05
7 *469:A *478:A1 3.62434e-05
8 *469:A *478:B1 5.71472e-05
9 *469:A *50:18 0
10 *469:A *51:12 0.000169607
11 *469:A *69:10 2.44318e-05
12 *474:A *474:B 0
13 *474:A *476:A3 5.03694e-05
14 *458:A2 *469:A 0.000150624
15 *458:A2 *49:12 0.000353073
16 *466:A_N *49:12 5.21162e-05
17 *466:B *49:12 7.70134e-06
18 *473:B1 *469:A 0
19 *473:B1 *49:12 0.000249395
*RES
1 *467:X *49:12 23.1036 
2 *49:12 *474:A 15.7464 
3 *49:12 *469:A 18.0857 
*END

*D_NET *50 0.00233647
*CONN
*I *469:B I *D sky130_fd_sc_hd__nand2_1
*I *474:B I *D sky130_fd_sc_hd__nor2_1
*I *468:X O *D sky130_fd_sc_hd__mux2_1
*CAP
1 *469:B 0
2 *474:B 0.000300996
3 *468:X 0.000276137
4 *50:18 0.000577133
5 *474:B *475:B 0
6 *474:B *476:C1 0.000318101
7 *474:B *478:A2 0
8 *50:18 *475:B 5.58941e-05
9 *50:18 *478:B1 5.52302e-05
10 *50:18 *69:10 0.000518817
11 *458:A2 *474:B 0
12 *469:A *50:18 0
13 *474:A *474:B 0
14 *475:C *50:18 1.69961e-05
15 *477:A_N *50:18 1.66679e-05
16 *477:B *50:18 6.05964e-05
17 *46:40 *50:18 0.0001399
*RES
1 *468:X *50:18 25.175 
2 *50:18 *474:B 24.1571 
3 *50:18 *469:B 9.3 
*END

*D_NET *51 0.00194118
*CONN
*I *476:A1 I *D sky130_fd_sc_hd__a311o_1
*I *473:C1 I *D sky130_fd_sc_hd__o211a_1
*I *469:Y O *D sky130_fd_sc_hd__nand2_1
*CAP
1 *476:A1 0.00011298
2 *473:C1 0
3 *469:Y 0.000427341
4 *51:12 0.00054032
5 *476:A1 *476:A2 0.000240477