*SPEF "ieee 1481-1999"
*DESIGN "Viterbi_Top"
*DATE "15:55:44 Thursday January 22, 2026"
*VENDOR "The OpenROAD Project"
*PROGRAM "OpenROAD"
*VERSION "edf00dff99f6c40d67a30c0e22a8191c5d2ed9d6"
*DESIGN_FLOW "NAME_SCOPE LOCAL" "PIN_CAP NONE"
*DIVIDER /
*DELIMITER :
*BUS_DELIMITER []
*T_UNIT 1 NS
*C_UNIT 1 PF
*R_UNIT 1 OHM
*L_UNIT 1 HENRY

*NAME_MAP
*3 clk
*4 decoded_out[0]
*5 decoded_out[1]
*6 decoded_out[2]
*7 decoded_out[3]
*8 decoded_out[4]
*9 decoded_out[5]
*10 decoded_out[6]
*11 decoded_out[7]
*12 frame_done
*13 received[0]
*14 received[1]
*15 rst_n
*16 start
*17 bm_00_00\[0\]
*18 bm_00_00\[1\]
*19 bm_00_10\[0\]
*20 bm_00_10\[1\]
*21 bm_01_00\[0\]
*22 bm_01_00\[1\]
*23 bm_01_10\[0\]
*24 bm_01_10\[1\]
*25 bm_10_01\[0\]
*26 bm_10_01\[1\]
*27 bm_10_11\[0\]
*28 bm_10_11\[1\]
*29 bm_11_01\[0\]
*30 bm_11_01\[1\]
*31 bm_11_11\[0\]
*32 bm_11_11\[1\]
*33 clknet_0_clk
*34 clknet_1_0__leaf_clk
*35 clknet_1_1__leaf_clk
*36 clr_me
*37 net1
*38 net10
*39 net11
*40 net12
*41 net13
*42 net2
*43 net3
*44 net4
*45 net5
*46 net6
*47 net7
*48 net8
*49 net9
*50 pm_00\[0\]
*51 pm_00\[1\]
*52 pm_00\[2\]
*53 pm_00\[3\]
*54 pm_01\[0\]
*55 pm_01\[1\]
*56 pm_01\[2\]
*57 pm_01\[3\]
*58 pm_10\[0\]
*59 pm_10\[1\]
*60 pm_10\[2\]
*61 pm_10\[3\]
*62 pm_11\[0\]
*63 pm_11\[1\]
*64 pm_11\[2\]
*65 pm_11\[3\]
*66 servivor_select_00
*67 servivor_select_01
*68 servivor_select_10
*69 servivor_select_11
*70 winner_state\[0\]
*71 winner_state\[1\]
*72 ANTENNA_BMU_received\[0\]
*73 ANTENNA_CTRL_clk
*74 ANTENNA_CTRL_frame_done
*75 ANTENNA_CTRL_rst_n
*76 ANTENNA_CTRL_start
*77 ANTENNA_MPM_prev_00\[0\]
*78 ANTENNA_MPM_prev_00\[1\]
*79 ANTENNA_MPM_prev_00\[2\]
*80 ANTENNA_MPM_prev_00\[3\]
*81 ANTENNA_MPM_prev_01\[0\]
*82 ANTENNA_MPM_prev_01\[2\]
*83 ANTENNA_MPM_prev_01\[3\]
*84 ANTENNA_MPM_prev_10\[0\]
*85 ANTENNA_MPM_prev_10\[1\]
*86 ANTENNA_MPM_prev_10\[2\]
*87 ANTENNA_MPM_prev_11\[0\]
*88 ANTENNA_MPM_prev_11\[1\]
*89 ANTENNA_MPM_prev_11\[2\]
*90 ANTENNA_MPM_prev_11\[3\]
*91 ANTENNA_MPM_winner_state\[0\]
*92 ANTENNA_MPM_winner_state\[1\]
*93 ANTENNA_PMU_Top_clk
*94 ANTENNA_PMU_Top_current_metric_00\[0\]
*95 ANTENNA_PMU_Top_current_metric_00\[1\]
*96 ANTENNA_PMU_Top_current_metric_00\[2\]
*97 ANTENNA_PMU_Top_current_metric_00\[3\]
*98 ANTENNA_PMU_Top_current_metric_01\[0\]
*99 ANTENNA_PMU_Top_current_metric_01\[2\]
*100 ANTENNA_PMU_Top_current_metric_01\[3\]
*101 ANTENNA_PMU_Top_current_metric_10\[0\]
*102 ANTENNA_PMU_Top_current_metric_10\[1\]
*103 ANTENNA_PMU_Top_current_metric_10\[2\]
*104 ANTENNA_PMU_Top_current_metric_11\[0\]
*105 ANTENNA_PMU_Top_current_metric_11\[1\]
*106 ANTENNA_PMU_Top_current_metric_11\[2\]
*107 ANTENNA_PMU_Top_current_metric_11\[3\]
*108 ANTENNA_PMU_Top_rst_n
*109 ANTENNA_SMU_Top_decoded_out\[0\]
*110 ANTENNA_SMU_Top_decoded_out\[1\]
*111 ANTENNA_SMU_Top_decoded_out\[2\]
*112 ANTENNA_SMU_Top_decoded_out\[3\]
*113 ANTENNA_SMU_Top_decoded_out\[6\]
*114 ANTENNA_SMU_Top_decoded_out\[7\]
*115 ANTENNA_SMU_Top_rst_n
*116 ANTENNA_SMU_Top_winner_state\[0\]
*117 ANTENNA_SMU_Top_winner_state\[1\]
*118 ANTENNA_clkbuf_0_clk_A
*119 ANTENNA_clkbuf_1_0__f_clk_X
*120 ANTENNA_input1_A
*121 ANTENNA_input1_X
*122 ANTENNA_input2_A
*123 ANTENNA_input3_A
*124 ANTENNA_input3_X
*125 ANTENNA_input4_A
*126 ANTENNA_input4_X
*127 ANTENNA_output11_A
*128 ANTENNA_output12_A
*129 ANTENNA_output13_A
*130 ANTENNA_output5_A
*131 ANTENNA_output6_A
*132 ANTENNA_output7_A
*133 ANTENNA_output8_A
*134 BMU
*135 CTRL
*136 FILLER_0_109
*137 FILLER_0_113
*138 FILLER_0_125
*139 FILLER_0_137
*140 FILLER_0_141
*141 FILLER_0_15
*142 FILLER_0_153
*143 FILLER_0_165
*144 FILLER_0_169
*145 FILLER_0_181
*146 FILLER_0_193
*147 FILLER_0_197
*148 FILLER_0_209
*149 FILLER_0_221
*150 FILLER_0_225
*151 FILLER_0_237
*152 FILLER_0_249
*153 FILLER_0_253
*154 FILLER_0_265
*155 FILLER_0_27
*156 FILLER_0_277
*157 FILLER_0_281
*158 FILLER_0_29
*159 FILLER_0_293
*160 FILLER_0_3
*161 FILLER_0_305
*162 FILLER_0_309
*163 FILLER_0_321
*164 FILLER_0_333
*165 FILLER_0_337
*166 FILLER_0_349
*167 FILLER_0_361
*168 FILLER_0_365
*169 FILLER_0_377
*170 FILLER_0_389
*171 FILLER_0_393
*172 FILLER_0_405
*173 FILLER_0_41
*174 FILLER_0_417
*175 FILLER_0_421
*176 FILLER_0_433
*177 FILLER_0_445
*178 FILLER_0_449
*179 FILLER_0_461
*180 FILLER_0_473
*181 FILLER_0_477
*182 FILLER_0_489
*183 FILLER_0_501
*184 FILLER_0_505
*185 FILLER_0_517
*186 FILLER_0_529
*187 FILLER_0_53
*188 FILLER_0_533
*189 FILLER_0_545
*190 FILLER_0_557
*191 FILLER_0_561
*192 FILLER_0_57
*193 FILLER_0_573
*194 FILLER_0_585
*195 FILLER_0_589
*196 FILLER_0_601
*197 FILLER_0_613
*198 FILLER_0_617
*199 FILLER_0_629
*200 FILLER_0_641
*201 FILLER_0_645
*202 FILLER_0_657
*203 FILLER_0_669
*204 FILLER_0_673
*205 FILLER_0_685
*206 FILLER_0_69
*207 FILLER_0_697
*208 FILLER_0_701
*209 FILLER_0_713
*210 FILLER_0_725
*211 FILLER_0_729
*212 FILLER_0_741
*213 FILLER_0_753
*214 FILLER_0_757
*215 FILLER_0_769
*216 FILLER_0_781
*217 FILLER_0_785
*218 FILLER_0_797
*219 FILLER_0_809
*220 FILLER_0_81
*221 FILLER_0_813
*222 FILLER_0_825
*223 FILLER_0_837
*224 FILLER_0_841
*225 FILLER_0_85
*226 FILLER_0_853
*227 FILLER_0_865
*228 FILLER_0_869
*229 FILLER_0_881
*230 FILLER_0_885
*231 FILLER_0_97
*232 FILLER_100_15
*233 FILLER_100_198
*234 FILLER_100_210
*235 FILLER_100_222
*236 FILLER_100_224
*237 FILLER_100_236
*238 FILLER_100_248
*239 FILLER_100_260
*240 FILLER_100_27
*241 FILLER_100_272
*242 FILLER_100_278
*243 FILLER_100_280
*244 FILLER_100_29
*245 FILLER_100_292
*246 FILLER_100_3
*247 FILLER_100_304
*248 FILLER_100_310
*249 FILLER_100_41
*250 FILLER_100_49
*251 FILLER_100_578
*252 FILLER_100_590
*253 FILLER_100_602
*254 FILLER_100_604
*255 FILLER_100_612
*256 FILLER_100_796
*257 FILLER_100_808
*258 FILLER_100_820
*259 FILLER_100_822
*260 FILLER_100_834
*261 FILLER_100_846
*262 FILLER_100_858
*263 FILLER_100_870
*264 FILLER_100_876
*265 FILLER_100_878
*266 FILLER_101_15
*267 FILLER_101_198
*268 FILLER_101_210
*269 FILLER_101_222
*270 FILLER_101_234
*271 FILLER_101_246
*272 FILLER_101_250
*273 FILLER_101_252
*274 FILLER_101_264
*275 FILLER_101_27
*276 FILLER_101_276
*277 FILLER_101_288
*278 FILLER_101_3
*279 FILLER_101_300
*280 FILLER_101_306
*281 FILLER_101_308
*282 FILLER_101_39
*283 FILLER_101_47
*284 FILLER_101_578
*285 FILLER_101_590
*286 FILLER_101_602
*287 FILLER_101_614
*288 FILLER_101_796
*289 FILLER_101_808
*290 FILLER_101_820
*291 FILLER_101_832
*292 FILLER_101_844
*293 FILLER_101_848
*294 FILLER_101_850
*295 FILLER_101_862
*296 FILLER_101_874
*297 FILLER_102_15
*298 FILLER_102_198
*299 FILLER_102_210
*300 FILLER_102_222
*301 FILLER_102_224
*302 FILLER_102_236
*303 FILLER_102_248
*304 FILLER_102_260
*305 FILLER_102_27
*306 FILLER_102_272
*307 FILLER_102_278
*308 FILLER_102_280
*309 FILLER_102_29
*310 FILLER_102_292
*311 FILLER_102_3
*312 FILLER_102_304
*313 FILLER_102_310
*314 FILLER_102_41
*315 FILLER_102_49
*316 FILLER_102_578
*317 FILLER_102_590
*318 FILLER_102_602
*319 FILLER_102_604
*320 FILLER_102_612
*321 FILLER_102_796
*322 FILLER_102_808
*323 FILLER_102_820
*324 FILLER_102_822
*325 FILLER_102_834
*326 FILLER_102_846
*327 FILLER_102_858
*328 FILLER_102_870
*329 FILLER_102_876
*330 FILLER_102_878
*331 FILLER_103_15
*332 FILLER_103_198
*333 FILLER_103_210
*334 FILLER_103_222
*335 FILLER_103_234
*336 FILLER_103_246
*337 FILLER_103_250
*338 FILLER_103_252
*339 FILLER_103_264
*340 FILLER_103_27
*341 FILLER_103_276
*342 FILLER_103_288
*343 FILLER_103_3
*344 FILLER_103_300
*345 FILLER_103_306
*346 FILLER_103_308
*347 FILLER_103_39
*348 FILLER_103_47
*349 FILLER_103_578
*350 FILLER_103_590
*351 FILLER_103_602
*352 FILLER_103_614
*353 FILLER_103_796
*354 FILLER_103_808
*355 FILLER_103_820
*356 FILLER_103_832
*357 FILLER_103_844
*358 FILLER_103_848
*359 FILLER_103_850
*360 FILLER_103_862
*361 FILLER_103_874
*362 FILLER_104_15
*363 FILLER_104_198
*364 FILLER_104_210
*365 FILLER_104_222
*366 FILLER_104_224
*367 FILLER_104_236
*368 FILLER_104_248
*369 FILLER_104_260
*370 FILLER_104_27
*371 FILLER_104_272
*372 FILLER_104_278
*373 FILLER_104_280
*374 FILLER_104_29
*375 FILLER_104_292
*376 FILLER_104_3
*377 FILLER_104_304
*378 FILLER_104_310
*379 FILLER_104_41
*380 FILLER_104_49
*381 FILLER_104_578
*382 FILLER_104_590
*383 FILLER_104_602
*384 FILLER_104_604
*385 FILLER_104_612
*386 FILLER_104_798
*387 FILLER_104_810
*388 FILLER_104_818
*389 FILLER_104_822
*390 FILLER_104_834
*391 FILLER_104_846
*392 FILLER_104_858
*393 FILLER_104_870
*394 FILLER_104_876
*395 FILLER_104_878
*396 FILLER_105_15
*397 FILLER_105_198
*398 FILLER_105_210
*399 FILLER_105_222
*400 FILLER_105_234
*401 FILLER_105_246
*402 FILLER_105_250
*403 FILLER_105_252
*404 FILLER_105_264
*405 FILLER_105_27
*406 FILLER_105_276
*407 FILLER_105_288
*408 FILLER_105_3
*409 FILLER_105_300
*410 FILLER_105_306
*411 FILLER_105_308
*412 FILLER_105_39
*413 FILLER_105_47
*414 FILLER_105_578
*415 FILLER_105_590
*416 FILLER_105_602
*417 FILLER_105_614
*418 FILLER_105_796
*419 FILLER_105_808
*420 FILLER_105_820
*421 FILLER_105_832
*422 FILLER_105_844
*423 FILLER_105_848
*424 FILLER_105_850
*425 FILLER_105_862
*426 FILLER_105_874
*427 FILLER_106_15
*428 FILLER_106_198
*429 FILLER_106_210
*430 FILLER_106_222
*431 FILLER_106_224
*432 FILLER_106_236
*433 FILLER_106_248
*434 FILLER_106_260
*435 FILLER_106_27
*436 FILLER_106_272
*437 FILLER_106_278
*438 FILLER_106_280
*439 FILLER_106_29
*440 FILLER_106_292
*441 FILLER_106_3
*442 FILLER_106_304
*443 FILLER_106_310
*444 FILLER_106_41
*445 FILLER_106_49
*446 FILLER_106_578
*447 FILLER_106_590
*448 FILLER_106_599
*449 FILLER_106_604
*450 FILLER_106_612
*451 FILLER_106_796
*452 FILLER_106_808
*453 FILLER_106_820
*454 FILLER_106_822
*455 FILLER_106_834
*456 FILLER_106_846
*457 FILLER_106_858
*458 FILLER_106_870
*459 FILLER_106_876
*460 FILLER_106_878
*461 FILLER_107_15
*462 FILLER_107_198
*463 FILLER_107_210
*464 FILLER_107_222
*465 FILLER_107_234
*466 FILLER_107_246
*467 FILLER_107_250
*468 FILLER_107_252
*469 FILLER_107_264
*470 FILLER_107_27
*471 FILLER_107_276
*472 FILLER_107_288
*473 FILLER_107_3
*474 FILLER_107_300
*475 FILLER_107_306
*476 FILLER_107_308
*477 FILLER_107_39
*478 FILLER_107_47
*479 FILLER_107_578
*480 FILLER_107_590
*481 FILLER_107_613
*482 FILLER_107_796
*483 FILLER_107_808
*484 FILLER_107_820
*485 FILLER_107_832
*486 FILLER_107_844
*487 FILLER_107_848
*488 FILLER_107_850
*489 FILLER_107_862
*490 FILLER_107_874
*491 FILLER_108_15
*492 FILLER_108_198
*493 FILLER_108_210
*494 FILLER_108_222
*495 FILLER_108_224
*496 FILLER_108_236
*497 FILLER_108_248
*498 FILLER_108_260
*499 FILLER_108_27
*500 FILLER_108_272
*501 FILLER_108_278
*502 FILLER_108_280
*503 FILLER_108_29
*504 FILLER_108_292
*505 FILLER_108_3
*506 FILLER_108_304
*507 FILLER_108_310
*508 FILLER_108_41
*509 FILLER_108_49
*510 FILLER_108_578
*511 FILLER_108_590
*512 FILLER_108_602
*513 FILLER_108_604
*514 FILLER_108_612
*515 FILLER_108_796
*516 FILLER_108_808
*517 FILLER_108_820
*518 FILLER_108_822
*519 FILLER_108_834
*520 FILLER_108_846
*521 FILLER_108_858
*522 FILLER_108_870
*523 FILLER_108_876
*524 FILLER_108_878
*525 FILLER_109_15
*526 FILLER_109_198
*527 FILLER_109_210
*528 FILLER_109_222
*529 FILLER_109_234
*530 FILLER_109_246
*531 FILLER_109_250
*532 FILLER_109_252
*533 FILLER_109_264
*534 FILLER_109_27
*535 FILLER_109_276
*536 FILLER_109_288
*537 FILLER_109_3
*538 FILLER_109_300
*539 FILLER_109_306
*540 FILLER_109_308
*541 FILLER_109_39
*542 FILLER_109_47
*543 FILLER_109_578
*544 FILLER_109_590
*545 FILLER_109_602
*546 FILLER_109_614
*547 FILLER_109_796
*548 FILLER_109_808
*549 FILLER_109_820
*550 FILLER_109_832
*551 FILLER_109_844
*552 FILLER_109_848
*553 FILLER_109_850
*554 FILLER_109_862
*555 FILLER_109_874
*556 FILLER_10_109
*557 FILLER_10_121
*558 FILLER_10_133
*559 FILLER_10_139
*560 FILLER_10_141
*561 FILLER_10_15
*562 FILLER_10_153
*563 FILLER_10_165
*564 FILLER_10_177
*565 FILLER_10_189
*566 FILLER_10_195
*567 FILLER_10_197
*568 FILLER_10_209
*569 FILLER_10_221
*570 FILLER_10_233
*571 FILLER_10_245
*572 FILLER_10_251
*573 FILLER_10_253
*574 FILLER_10_265
*575 FILLER_10_27
*576 FILLER_10_277
*577 FILLER_10_289
*578 FILLER_10_29
*579 FILLER_10_3
*580 FILLER_10_301
*581 FILLER_10_307
*582 FILLER_10_309
*583 FILLER_10_321
*584 FILLER_10_333
*585 FILLER_10_345
*586 FILLER_10_357
*587 FILLER_10_363
*588 FILLER_10_365
*589 FILLER_10_377
*590 FILLER_10_389
*591 FILLER_10_401
*592 FILLER_10_41
*593 FILLER_10_413
*594 FILLER_10_419
*595 FILLER_10_421
*596 FILLER_10_433
*597 FILLER_10_445
*598 FILLER_10_457
*599 FILLER_10_469
*600 FILLER_10_475
*601 FILLER_10_477
*602 FILLER_10_489
*603 FILLER_10_501
*604 FILLER_10_513
*605 FILLER_10_525
*606 FILLER_10_53
*607 FILLER_10_531
*608 FILLER_10_533
*609 FILLER_10_545
*610 FILLER_10_557
*611 FILLER_10_569
*612 FILLER_10_581
*613 FILLER_10_587
*614 FILLER_10_589
*615 FILLER_10_601
*616 FILLER_10_613
*617 FILLER_10_625
*618 FILLER_10_637
*619 FILLER_10_643
*620 FILLER_10_645
*621 FILLER_10_65
*622 FILLER_10_657
*623 FILLER_10_669
*624 FILLER_10_681
*625 FILLER_10_693
*626 FILLER_10_699
*627 FILLER_10_701
*628 FILLER_10_713
*629 FILLER_10_725
*630 FILLER_10_737
*631 FILLER_10_749
*632 FILLER_10_755
*633 FILLER_10_757
*634 FILLER_10_769
*635 FILLER_10_77
*636 FILLER_10_781
*637 FILLER_10_793
*638 FILLER_10_805
*639 FILLER_10_811
*640 FILLER_10_813
*641 FILLER_10_825
*642 FILLER_10_83
*643 FILLER_10_837
*644 FILLER_10_849
*645 FILLER_10_85
*646 FILLER_10_861
*647 FILLER_10_867
*648 FILLER_10_869
*649 FILLER_10_881
*650 FILLER_10_885
*651 FILLER_10_97
*652 FILLER_110_109
*653 FILLER_110_113
*654 FILLER_110_125
*655 FILLER_110_137
*656 FILLER_110_141
*657 FILLER_110_15
*658 FILLER_110_153
*659 FILLER_110_165
*660 FILLER_110_169
*661 FILLER_110_181
*662 FILLER_110_193
*663 FILLER_110_197
*664 FILLER_110_209
*665 FILLER_110_221
*666 FILLER_110_225
*667 FILLER_110_237
*668 FILLER_110_249
*669 FILLER_110_253
*670 FILLER_110_265
*671 FILLER_110_27
*672 FILLER_110_277
*673 FILLER_110_281
*674 FILLER_110_29
*675 FILLER_110_293
*676 FILLER_110_3
*677 FILLER_110_305
*678 FILLER_110_309
*679 FILLER_110_321
*680 FILLER_110_333
*681 FILLER_110_337
*682 FILLER_110_349
*683 FILLER_110_361
*684 FILLER_110_365
*685 FILLER_110_377
*686 FILLER_110_389
*687 FILLER_110_393
*688 FILLER_110_405
*689 FILLER_110_41
*690 FILLER_110_417
*691 FILLER_110_421
*692 FILLER_110_433
*693 FILLER_110_441
*694 FILLER_110_446
*695 FILLER_110_449
*696 FILLER_110_461
*697 FILLER_110_473
*698 FILLER_110_477
*699 FILLER_110_489
*700 FILLER_110_501
*701 FILLER_110_505
*702 FILLER_110_513
*703 FILLER_110_518
*704 FILLER_110_53
*705 FILLER_110_530
*706 FILLER_110_533
*707 FILLER_110_545
*708 FILLER_110_557
*709 FILLER_110_561
*710 FILLER_110_57
*711 FILLER_110_573
*712 FILLER_110_585
*713 FILLER_110_589
*714 FILLER_110_601
*715 FILLER_110_613
*716 FILLER_110_617
*717 FILLER_110_629
*718 FILLER_110_641
*719 FILLER_110_645
*720 FILLER_110_657
*721 FILLER_110_669
*722 FILLER_110_673
*723 FILLER_110_685
*724 FILLER_110_69
*725 FILLER_110_697
*726 FILLER_110_701
*727 FILLER_110_713
*728 FILLER_110_725
*729 FILLER_110_729
*730 FILLER_110_737
*731 FILLER_110_740
*732 FILLER_110_752
*733 FILLER_110_757
*734 FILLER_110_769
*735 FILLER_110_781
*736 FILLER_110_785
*737 FILLER_110_797
*738 FILLER_110_809
*739 FILLER_110_81
*740 FILLER_110_813
*741 FILLER_110_825
*742 FILLER_110_837
*743 FILLER_110_841
*744 FILLER_110_85
*745 FILLER_110_853
*746 FILLER_110_865
*747 FILLER_110_869
*748 FILLER_110_881
*749 FILLER_110_885
*750 FILLER_110_97
*751 FILLER_111_105
*752 FILLER_111_111
*753 FILLER_111_113
*754 FILLER_111_125
*755 FILLER_111_137
*756 FILLER_111_149
*757 FILLER_111_15
*758 FILLER_111_161
*759 FILLER_111_167
*760 FILLER_111_169
*761 FILLER_111_181
*762 FILLER_111_193
*763 FILLER_111_205
*764 FILLER_111_217
*765 FILLER_111_223
*766 FILLER_111_225
*767 FILLER_111_237
*768 FILLER_111_249
*769 FILLER_111_261
*770 FILLER_111_27
*771 FILLER_111_273
*772 FILLER_111_279
*773 FILLER_111_281
*774 FILLER_111_293
*775 FILLER_111_3
*776 FILLER_111_305
*777 FILLER_111_317
*778 FILLER_111_329
*779 FILLER_111_335
*780 FILLER_111_337
*781 FILLER_111_349
*782 FILLER_111_361
*783 FILLER_111_373
*784 FILLER_111_385
*785 FILLER_111_39
*786 FILLER_111_391
*787 FILLER_111_393
*788 FILLER_111_405
*789 FILLER_111_417
*790 FILLER_111_429
*791 FILLER_111_441
*792 FILLER_111_447
*793 FILLER_111_449
*794 FILLER_111_461
*795 FILLER_111_473
*796 FILLER_111_485
*797 FILLER_111_497
*798 FILLER_111_503
*799 FILLER_111_51
*800 FILLER_111_527
*801 FILLER_111_539
*802 FILLER_111_55
*803 FILLER_111_551
*804 FILLER_111_559
*805 FILLER_111_57
*806 FILLER_111_583
*807 FILLER_111_595
*808 FILLER_111_607
*809 FILLER_111_615
*810 FILLER_111_617
*811 FILLER_111_629
*812 FILLER_111_641
*813 FILLER_111_653
*814 FILLER_111_665
*815 FILLER_111_671
*816 FILLER_111_673
*817 FILLER_111_685
*818 FILLER_111_69
*819 FILLER_111_697
*820 FILLER_111_709
*821 FILLER_111_721
*822 FILLER_111_727
*823 FILLER_111_729
*824 FILLER_111_741
*825 FILLER_111_753
*826 FILLER_111_765
*827 FILLER_111_777
*828 FILLER_111_783
*829 FILLER_111_785
*830 FILLER_111_797
*831 FILLER_111_809
*832 FILLER_111_81
*833 FILLER_111_821
*834 FILLER_111_833
*835 FILLER_111_839
*836 FILLER_111_841
*837 FILLER_111_853
*838 FILLER_111_865
*839 FILLER_111_877
*840 FILLER_111_885
*841 FILLER_111_93
*842 FILLER_112_109
*843 FILLER_112_121
*844 FILLER_112_133
*845 FILLER_112_139
*846 FILLER_112_141
*847 FILLER_112_15
*848 FILLER_112_153
*849 FILLER_112_165
*850 FILLER_112_177
*851 FILLER_112_189
*852 FILLER_112_195
*853 FILLER_112_197
*854 FILLER_112_209
*855 FILLER_112_221
*856 FILLER_112_233
*857 FILLER_112_245
*858 FILLER_112_251
*859 FILLER_112_253
*860 FILLER_112_265
*861 FILLER_112_27
*862 FILLER_112_277
*863 FILLER_112_289
*864 FILLER_112_29
*865 FILLER_112_3
*866 FILLER_112_301
*867 FILLER_112_307
*868 FILLER_112_309
*869 FILLER_112_321
*870 FILLER_112_333
*871 FILLER_112_345
*872 FILLER_112_357
*873 FILLER_112_363
*874 FILLER_112_365
*875 FILLER_112_377
*876 FILLER_112_389
*877 FILLER_112_401
*878 FILLER_112_41
*879 FILLER_112_413
*880 FILLER_112_419
*881 FILLER_112_421
*882 FILLER_112_433
*883 FILLER_112_445
*884 FILLER_112_457
*885 FILLER_112_469
*886 FILLER_112_475
*887 FILLER_112_477
*888 FILLER_112_489
*889 FILLER_112_501
*890 FILLER_112_513
*891 FILLER_112_525
*892 FILLER_112_53
*893 FILLER_112_531
*894 FILLER_112_533
*895 FILLER_112_545
*896 FILLER_112_557
*897 FILLER_112_569
*898 FILLER_112_581
*899 FILLER_112_587
*900 FILLER_112_589
*901 FILLER_112_601
*902 FILLER_112_613
*903 FILLER_112_625
*904 FILLER_112_637
*905 FILLER_112_643
*906 FILLER_112_645
*907 FILLER_112_65
*908 FILLER_112_657
*909 FILLER_112_669
*910 FILLER_112_681
*911 FILLER_112_693
*912 FILLER_112_699
*913 FILLER_112_701
*914 FILLER_112_713
*915 FILLER_112_725
*916 FILLER_112_737
*917 FILLER_112_749
*918 FILLER_112_755
*919 FILLER_112_757
*920 FILLER_112_769
*921 FILLER_112_77
*922 FILLER_112_781
*923 FILLER_112_793
*924 FILLER_112_805
*925 FILLER_112_811
*926 FILLER_112_813
*927 FILLER_112_825
*928 FILLER_112_83
*929 FILLER_112_837
*930 FILLER_112_849
*931 FILLER_112_85
*932 FILLER_112_861
*933 FILLER_112_867
*934 FILLER_112_869
*935 FILLER_112_881
*936 FILLER_112_885
*937 FILLER_112_97
*938 FILLER_113_105
*939 FILLER_113_111
*940 FILLER_113_113
*941 FILLER_113_125
*942 FILLER_113_137
*943 FILLER_113_149
*944 FILLER_113_15
*945 FILLER_113_161
*946 FILLER_113_167
*947 FILLER_113_169
*948 FILLER_113_181
*949 FILLER_113_193
*950 FILLER_113_205
*951 FILLER_113_217
*952 FILLER_113_223
*953 FILLER_113_225
*954 FILLER_113_237
*955 FILLER_113_249
*956 FILLER_113_261
*957 FILLER_113_27
*958 FILLER_113_273
*959 FILLER_113_279
*960 FILLER_113_281
*961 FILLER_113_293
*962 FILLER_113_3
*963 FILLER_113_305
*964 FILLER_113_317
*965 FILLER_113_329
*966 FILLER_113_335
*967 FILLER_113_337
*968 FILLER_113_349
*969 FILLER_113_361
*970 FILLER_113_373
*971 FILLER_113_385
*972 FILLER_113_39
*973 FILLER_113_391
*974 FILLER_113_393
*975 FILLER_113_405
*976 FILLER_113_417
*977 FILLER_113_429
*978 FILLER_113_441
*979 FILLER_113_447
*980 FILLER_113_449
*981 FILLER_113_461
*982 FILLER_113_473
*983 FILLER_113_485
*984 FILLER_113_497
*985 FILLER_113_503
*986 FILLER_113_505
*987 FILLER_113_51
*988 FILLER_113_517
*989 FILLER_113_529
*990 FILLER_113_541
*991 FILLER_113_55
*992 FILLER_113_553
*993 FILLER_113_559
*994 FILLER_113_561
*995 FILLER_113_57
*996 FILLER_113_573
*997 FILLER_113_585
*998 FILLER_113_597
*999 FILLER_113_609
*1000 FILLER_113_615
*1001 FILLER_113_617
*1002 FILLER_113_629
*1003 FILLER_113_641
*1004 FILLER_113_653
*1005 FILLER_113_665
*1006 FILLER_113_671
*1007 FILLER_113_673
*1008 FILLER_113_685
*1009 FILLER_113_69
*1010 FILLER_113_697
*1011 FILLER_113_709
*1012 FILLER_113_721
*1013 FILLER_113_727
*1014 FILLER_113_729
*1015 FILLER_113_741
*1016 FILLER_113_753
*1017 FILLER_113_765
*1018 FILLER_113_777
*1019 FILLER_113_783
*1020 FILLER_113_785
*1021 FILLER_113_797
*1022 FILLER_113_809
*1023 FILLER_113_81
*1024 FILLER_113_821
*1025 FILLER_113_833
*1026 FILLER_113_839
*1027 FILLER_113_841
*1028 FILLER_113_853
*1029 FILLER_113_865
*1030 FILLER_113_877
*1031 FILLER_113_885
*1032 FILLER_113_93
*1033 FILLER_114_109
*1034 FILLER_114_121
*1035 FILLER_114_133
*1036 FILLER_114_139
*1037 FILLER_114_141
*1038 FILLER_114_153
*1039 FILLER_114_165
*1040 FILLER_114_177
*1041 FILLER_114_189
*1042 FILLER_114_195
*1043 FILLER_114_197
*1044 FILLER_114_20
*1045 FILLER_114_209
*1046 FILLER_114_221
*1047 FILLER_114_233
*1048 FILLER_114_245
*1049 FILLER_114_251
*1050 FILLER_114_253
*1051 FILLER_114_265
*1052 FILLER_114_277
*1053 FILLER_114_289
*1054 FILLER_114_29
*1055 FILLER_114_301
*1056 FILLER_114_307
*1057 FILLER_114_309
*1058 FILLER_114_321
*1059 FILLER_114_333
*1060 FILLER_114_345
*1061 FILLER_114_357
*1062 FILLER_114_363
*1063 FILLER_114_365
*1064 FILLER_114_377
*1065 FILLER_114_389
*1066 FILLER_114_401
*1067 FILLER_114_41
*1068 FILLER_114_413
*1069 FILLER_114_419
*1070 FILLER_114_421
*1071 FILLER_114_433
*1072 FILLER_114_445
*1073 FILLER_114_457
*1074 FILLER_114_469
*1075 FILLER_114_475
*1076 FILLER_114_477
*1077 FILLER_114_489
*1078 FILLER_114_501
*1079 FILLER_114_513
*1080 FILLER_114_525
*1081 FILLER_114_53
*1082 FILLER_114_531
*1083 FILLER_114_533
*1084 FILLER_114_545
*1085 FILLER_114_557
*1086 FILLER_114_569
*1087 FILLER_114_581
*1088 FILLER_114_587
*1089 FILLER_114_589
*1090 FILLER_114_601
*1091 FILLER_114_613
*1092 FILLER_114_625
*1093 FILLER_114_637
*1094 FILLER_114_643
*1095 FILLER_114_645
*1096 FILLER_114_65
*1097 FILLER_114_657
*1098 FILLER_114_669
*1099 FILLER_114_681
*1100 FILLER_114_693
*1101 FILLER_114_699
*1102 FILLER_114_701
*1103 FILLER_114_713
*1104 FILLER_114_725
*1105 FILLER_114_737
*1106 FILLER_114_749
*1107 FILLER_114_755
*1108 FILLER_114_757
*1109 FILLER_114_769
*1110 FILLER_114_77
*1111 FILLER_114_781
*1112 FILLER_114_793
*1113 FILLER_114_8
*1114 FILLER_114_805
*1115 FILLER_114_811
*1116 FILLER_114_813
*1117 FILLER_114_825
*1118 FILLER_114_83
*1119 FILLER_114_837
*1120 FILLER_114_849
*1121 FILLER_114_85
*1122 FILLER_114_861
*1123 FILLER_114_867
*1124 FILLER_114_869
*1125 FILLER_114_881
*1126 FILLER_114_885
*1127 FILLER_114_97
*1128 FILLER_115_105
*1129 FILLER_115_111
*1130 FILLER_115_113
*1131 FILLER_115_125
*1132 FILLER_115_137
*1133 FILLER_115_149
*1134 FILLER_115_15
*1135 FILLER_115_161
*1136 FILLER_115_167
*1137 FILLER_115_169
*1138 FILLER_115_181
*1139 FILLER_115_193
*1140 FILLER_115_205
*1141 FILLER_115_217
*1142 FILLER_115_223
*1143 FILLER_115_225
*1144 FILLER_115_237
*1145 FILLER_115_249
*1146 FILLER_115_261
*1147 FILLER_115_27
*1148 FILLER_115_273
*1149 FILLER_115_279
*1150 FILLER_115_281
*1151 FILLER_115_293
*1152 FILLER_115_3
*1153 FILLER_115_305
*1154 FILLER_115_317
*1155 FILLER_115_329
*1156 FILLER_115_335
*1157 FILLER_115_337
*1158 FILLER_115_349
*1159 FILLER_115_361
*1160 FILLER_115_373
*1161 FILLER_115_385
*1162 FILLER_115_39
*1163 FILLER_115_391
*1164 FILLER_115_393
*1165 FILLER_115_405
*1166 FILLER_115_417
*1167 FILLER_115_429
*1168 FILLER_115_441
*1169 FILLER_115_447
*1170 FILLER_115_449
*1171 FILLER_115_461
*1172 FILLER_115_473
*1173 FILLER_115_485
*1174 FILLER_115_497
*1175 FILLER_115_503
*1176 FILLER_115_505
*1177 FILLER_115_51
*1178 FILLER_115_517
*1179 FILLER_115_529
*1180 FILLER_115_541
*1181 FILLER_115_55
*1182 FILLER_115_553
*1183 FILLER_115_559
*1184 FILLER_115_561
*1185 FILLER_115_57
*1186 FILLER_115_573
*1187 FILLER_115_585
*1188 FILLER_115_597
*1189 FILLER_115_609
*1190 FILLER_115_615
*1191 FILLER_115_617
*1192 FILLER_115_629
*1193 FILLER_115_641
*1194 FILLER_115_653
*1195 FILLER_115_665
*1196 FILLER_115_671
*1197 FILLER_115_673
*1198 FILLER_115_685
*1199 FILLER_115_69
*1200 FILLER_115_697
*1201 FILLER_115_709
*1202 FILLER_115_721
*1203 FILLER_115_727
*1204 FILLER_115_729
*1205 FILLER_115_741
*1206 FILLER_115_753
*1207 FILLER_115_765
*1208 FILLER_115_777
*1209 FILLER_115_783
*1210 FILLER_115_785
*1211 FILLER_115_797
*1212 FILLER_115_809
*1213 FILLER_115_81
*1214 FILLER_115_821
*1215 FILLER_115_833
*1216 FILLER_115_839
*1217 FILLER_115_841
*1218 FILLER_115_853
*1219 FILLER_115_865
*1220 FILLER_115_877
*1221 FILLER_115_885
*1222 FILLER_115_93
*1223 FILLER_116_109
*1224 FILLER_116_113
*1225 FILLER_116_125
*1226 FILLER_116_137
*1227 FILLER_116_141
*1228 FILLER_116_15
*1229 FILLER_116_153
*1230 FILLER_116_165
*1231 FILLER_116_169
*1232 FILLER_116_181
*1233 FILLER_116_193
*1234 FILLER_116_197
*1235 FILLER_116_209
*1236 FILLER_116_221
*1237 FILLER_116_225
*1238 FILLER_116_237
*1239 FILLER_116_249
*1240 FILLER_116_253
*1241 FILLER_116_265
*1242 FILLER_116_27
*1243 FILLER_116_277
*1244 FILLER_116_281
*1245 FILLER_116_29
*1246 FILLER_116_293
*1247 FILLER_116_3
*1248 FILLER_116_305
*1249 FILLER_116_309
*1250 FILLER_116_321
*1251 FILLER_116_333
*1252 FILLER_116_337
*1253 FILLER_116_349
*1254 FILLER_116_361
*1255 FILLER_116_365
*1256 FILLER_116_377
*1257 FILLER_116_389
*1258 FILLER_116_393
*1259 FILLER_116_405
*1260 FILLER_116_41
*1261 FILLER_116_417
*1262 FILLER_116_421
*1263 FILLER_116_433
*1264 FILLER_116_441
*1265 FILLER_116_446
*1266 FILLER_116_449
*1267 FILLER_116_461
*1268 FILLER_116_473
*1269 FILLER_116_477
*1270 FILLER_116_489
*1271 FILLER_116_501
*1272 FILLER_116_505
*1273 FILLER_116_513
*1274 FILLER_116_518
*1275 FILLER_116_53
*1276 FILLER_116_530
*1277 FILLER_116_533
*1278 FILLER_116_545
*1279 FILLER_116_557
*1280 FILLER_116_561
*1281 FILLER_116_57
*1282 FILLER_116_573
*1283 FILLER_116_585
*1284 FILLER_116_589
*1285 FILLER_116_601
*1286 FILLER_116_613
*1287 FILLER_116_617
*1288 FILLER_116_629
*1289 FILLER_116_641
*1290 FILLER_116_645
*1291 FILLER_116_657
*1292 FILLER_116_669
*1293 FILLER_116_673
*1294 FILLER_116_685
*1295 FILLER_116_69
*1296 FILLER_116_697
*1297 FILLER_116_701
*1298 FILLER_116_713
*1299 FILLER_116_725
*1300 FILLER_116_729
*1301 FILLER_116_741
*1302 FILLER_116_753
*1303 FILLER_116_757
*1304 FILLER_116_769
*1305 FILLER_116_781
*1306 FILLER_116_785
*1307 FILLER_116_797
*1308 FILLER_116_809
*1309 FILLER_116_81
*1310 FILLER_116_813
*1311 FILLER_116_825
*1312 FILLER_116_837
*1313 FILLER_116_841
*1314 FILLER_116_85
*1315 FILLER_116_853
*1316 FILLER_116_865
*1317 FILLER_116_869
*1318 FILLER_116_881
*1319 FILLER_116_885
*1320 FILLER_116_97
*1321 FILLER_117_105
*1322 FILLER_117_111
*1323 FILLER_117_113
*1324 FILLER_117_125
*1325 FILLER_117_137
*1326 FILLER_117_149
*1327 FILLER_117_15
*1328 FILLER_117_161
*1329 FILLER_117_167
*1330 FILLER_117_169
*1331 FILLER_117_181
*1332 FILLER_117_193
*1333 FILLER_117_205
*1334 FILLER_117_217
*1335 FILLER_117_223
*1336 FILLER_117_225
*1337 FILLER_117_237
*1338 FILLER_117_249
*1339 FILLER_117_261
*1340 FILLER_117_27
*1341 FILLER_117_273
*1342 FILLER_117_279
*1343 FILLER_117_281
*1344 FILLER_117_293
*1345 FILLER_117_3
*1346 FILLER_117_305
*1347 FILLER_117_39
*1348 FILLER_117_51
*1349 FILLER_117_55
*1350 FILLER_117_57
*1351 FILLER_117_578
*1352 FILLER_117_590
*1353 FILLER_117_602
*1354 FILLER_117_614
*1355 FILLER_117_626
*1356 FILLER_117_630
*1357 FILLER_117_632
*1358 FILLER_117_644
*1359 FILLER_117_656
*1360 FILLER_117_668
*1361 FILLER_117_680
*1362 FILLER_117_686
*1363 FILLER_117_688
*1364 FILLER_117_69
*1365 FILLER_117_700
*1366 FILLER_117_712
*1367 FILLER_117_724
*1368 FILLER_117_736
*1369 FILLER_117_742
*1370 FILLER_117_744
*1371 FILLER_117_756
*1372 FILLER_117_768
*1373 FILLER_117_780
*1374 FILLER_117_792
*1375 FILLER_117_798
*1376 FILLER_117_800
*1377 FILLER_117_81
*1378 FILLER_117_812
*1379 FILLER_117_824
*1380 FILLER_117_836
*1381 FILLER_117_848
*1382 FILLER_117_854
*1383 FILLER_117_856
*1384 FILLER_117_868
*1385 FILLER_117_880
*1386 FILLER_117_93
*1387 FILLER_118_109
*1388 FILLER_118_121
*1389 FILLER_118_133
*1390 FILLER_118_139
*1391 FILLER_118_141
*1392 FILLER_118_15
*1393 FILLER_118_153
*1394 FILLER_118_165
*1395 FILLER_118_177
*1396 FILLER_118_189
*1397 FILLER_118_195
*1398 FILLER_118_197
*1399 FILLER_118_209
*1400 FILLER_118_221
*1401 FILLER_118_233
*1402 FILLER_118_245
*1403 FILLER_118_251
*1404 FILLER_118_253
*1405 FILLER_118_265
*1406 FILLER_118_27
*1407 FILLER_118_277
*1408 FILLER_118_289
*1409 FILLER_118_29
*1410 FILLER_118_3
*1411 FILLER_118_301
*1412 FILLER_118_307
*1413 FILLER_118_309
*1414 FILLER_118_41
*1415 FILLER_118_53
*1416 FILLER_118_578
*1417 FILLER_118_590
*1418 FILLER_118_602
*1419 FILLER_118_604
*1420 FILLER_118_616
*1421 FILLER_118_628
*1422 FILLER_118_640
*1423 FILLER_118_65
*1424 FILLER_118_652
*1425 FILLER_118_658
*1426 FILLER_118_660
*1427 FILLER_118_672
*1428 FILLER_118_684
*1429 FILLER_118_696
*1430 FILLER_118_708
*1431 FILLER_118_714
*1432 FILLER_118_716
*1433 FILLER_118_728
*1434 FILLER_118_740
*1435 FILLER_118_752
*1436 FILLER_118_764
*1437 FILLER_118_77
*1438 FILLER_118_770
*1439 FILLER_118_772
*1440 FILLER_118_784
*1441 FILLER_118_796
*1442 FILLER_118_808
*1443 FILLER_118_820
*1444 FILLER_118_826
*1445 FILLER_118_828
*1446 FILLER_118_83
*1447 FILLER_118_840
*1448 FILLER_118_85
*1449 FILLER_118_852
*1450 FILLER_118_864
*1451 FILLER_118_876
*1452 FILLER_118_882
*1453 FILLER_118_884
*1454 FILLER_118_97
*1455 FILLER_119_105
*1456 FILLER_119_111
*1457 FILLER_119_113
*1458 FILLER_119_125
*1459 FILLER_119_137
*1460 FILLER_119_149
*1461 FILLER_119_15
*1462 FILLER_119_161
*1463 FILLER_119_167
*1464 FILLER_119_169